  104
jmolscript: load "" {1 1 1} spacegroup "x,y,z" unitcell [{     -0.434577   -28.215976    -0.453551 }, {     -0.350908     0.001905   -22.994000 }, {     22.895891    -0.052960    -2.153074 }]
C      7.323271    -7.352550   -15.977185     0.124289
C      7.307919    -8.123056   -17.093674    -0.121340
C      7.490872    -9.548094   -16.997921    -0.128267
C      7.643022   -10.075535   -15.655644     0.032957
C      7.653883    -9.219595   -14.491181    -0.124826
C      7.484404    -7.833657   -14.699442    -0.138502
H      7.193861    -7.737206   -18.096263     0.110364
H      7.510155   -10.178596   -17.796579     0.153069
H      7.752123    -9.662956   -13.557311     0.148544
H      7.470227    -7.208021   -13.822882     0.115349
C      7.828515   -11.476636   -15.510207     0.320001
N      7.933326   -12.533684   -15.393597    -0.268198
C      8.504338   -24.864927   -14.735620     0.098055
C      7.219703   -24.392535   -14.984510    -0.136939
C      7.053438   -23.023602   -15.196562    -0.112476
C      8.187792   -22.161683   -15.002413     0.023075
C      9.529946   -22.707363   -14.891586    -0.110483
C      9.656396   -24.099114   -14.602489    -0.155001
H      6.385631   -25.030857   -15.085092     0.130753
H      6.131209   -22.581229   -15.375565     0.135190
H     10.323383   -22.033711   -14.731988     0.143974
H     10.603736   -24.482797   -14.407610     0.129546
C      8.066504   -20.774336   -15.227180     0.326784
N      7.955848   -19.708500   -15.382325    -0.294232
C      8.260118    -2.740384   -14.977005    -0.086372
C      7.109255    -5.798340   -16.187103    -0.176100
C      7.582774    -3.409280   -15.682913    -0.100883
N      8.733640    -0.544012   -14.473188    -0.002134
C      7.770019    -4.996996   -15.444000    -0.100776
C      8.684147   -26.434864   -14.544589    -0.176572
C      7.947408   -27.214044   -15.261193    -0.089423
N      7.942946    -1.052989   -15.313837    -0.130942
H      8.995263    -2.768561   -14.220046     0.143081
H      6.494588    -5.592810   -16.987881     0.136269
H      6.857316    -3.222167   -16.444884     0.152303
H      8.478663    -5.186079   -14.702693     0.122392
H      9.472530   -26.673762   -13.864148     0.141597
H      7.275205   -27.107995   -15.980005     0.144274
C      8.059874   -16.129832    -8.554640     0.081661
C      8.952094   -15.312939    -9.180261    -0.088357
C      8.970649   -15.346434   -10.671320    -0.096979
C      8.029381   -16.116742   -11.333419    -0.022460
C      7.111786   -16.909949   -10.643455    -0.120920
C      7.121166   -16.884615    -9.150027    -0.118911
H      9.712315   -14.721551    -8.744203     0.100137
H      9.650907   -14.703205   -11.216380     0.134169
H      6.405786   -17.509832   -11.204188     0.132110
H      6.393635   -17.517140    -8.713900     0.117577
C      7.842506   -16.065549   -22.184319     0.149047
C      6.850307   -15.463778   -21.544356    -0.140554
C      6.918295   -15.333176   -20.037237    -0.085484
C      7.850748   -16.123297   -19.509959    -0.012308
C      8.798316   -16.841558   -20.127364    -0.103581
C      8.805746   -16.832480   -21.601460    -0.137708
H      6.144120   -14.839737   -21.961286     0.092853
H      6.188989   -14.836664   -19.548437     0.139925
H      9.556403   -17.407019   -19.573104     0.133695
H      9.549395   -17.404934   -22.016513     0.113013
C      8.113207   -16.119174    -4.521430    -0.054085
C      7.808653   -16.097210   -23.729774    -0.049902
C      8.128218   -16.120957    -3.224541    -0.028079
C      8.161158   -16.127672    -1.858594    -0.059920
C      8.075637   -16.116741    -7.172723    -0.067857
C      8.093156   -16.113656    -5.834401    -0.103950
C      1.095129   -16.096194   -14.726945     0.089423
C      1.904894   -16.427408   -13.601151    -0.178762
C      3.357569   -16.421837   -13.766502    -0.113691
C      3.958552   -16.105384   -15.015126    -0.008624
C      3.128147   -15.796901   -16.111151    -0.115264
C      1.693746   -15.784490   -16.001254    -0.156322
H      1.523216   -16.636544   -12.673415     0.131917
H      3.982301   -16.645747   -12.946535     0.119350
H      3.586839   -15.577319   -17.041508     0.125348
H      1.118832   -15.574549   -16.837270     0.127169
C     14.718032   -16.275763   -15.963340     0.202613
C     14.127690   -14.922576   -15.951776    -0.062808
C     12.636505   -14.938634   -15.805781    -0.090104
C     11.909879   -16.156304   -15.720591    -0.055793
C     12.698902   -17.331228   -15.865882    -0.102384
C     14.071017   -17.178195   -16.007068    -0.089297
H     14.583212   -13.977151   -15.971360     0.129360
H     12.113313   -13.995626   -15.742477     0.123412
H     12.091517   -18.229402   -15.814947     0.111243
H     14.566425   -18.263308   -16.043361     0.107120
C     20.045598   -16.156920   -16.520406    -0.163125
C     16.161495   -16.086853   -16.209679     0.333063
C     18.718689   -16.138386   -16.423548     0.105929
C     17.408666   -16.142573   -16.241258    -0.465234
C     -0.259551   -16.131627   -14.605960    -0.141554
C     21.402804   -16.144307   -16.646856    -0.037060
Zn     7.980299   -14.653506   -15.394256     1.049870
Zn     7.951409   -17.609454   -15.381336     1.000841
C     10.656303   -16.268245   -15.614088     0.613943
C      5.352002   -16.104422   -15.168760     0.602022
C      7.841114   -16.112809   -17.973531     0.606326
C      8.043759   -16.121862   -12.795224     0.628814
O      5.942369   -17.259770   -15.247975    -0.588171
O      9.902555   -17.140454   -15.471058    -0.519285
O      7.895236   -17.266411   -17.400060    -0.536558
O      7.992781   -17.273418   -13.395153    -0.593464
O      7.789640   -14.983583   -17.352495    -0.604347
O      9.873365   -14.932480   -15.492189    -0.708832
O      5.958779   -14.969317   -15.264185    -0.549539
O      8.106588   -14.955069   -13.378790    -0.609074
 
 Chargemol version 3.5 September 26, 2017.
See ddec.sourceforge.net for latest version.
 
Computational parameters:
Number of radial integration shells =    100
Cutoff radius (pm) =    500
Error in the integrated total number of electrons before renormalization (e) =    3.0555E-01
Charge convergence tolerance =    1.0000E-05
Minimum radius for electron cloud penetration fitting (pm) =    200
Minimum decay exponent for electron density of buried atom tails =   1.7500
Maximum decay exponent for electron density of buried atom tails =  2.5000
Number of iterations to convergence =      7
 
The following XYZ coordinates are in angstroms. The atomic dipoles and quadrupoles are in atomic units.
atom number, atomic symbol, x, y, z, net_charge, dipole_x, dipole_y, dipole_z, dipole_mag, Qxy, Qxz, Qyz,Q(x^2-y^2), Q(3z^2 - R^2), three eigenvalues of traceless quadrupole moment tensor
    1 C      7.323271    -7.352550   -15.977185     0.124289     0.007131    -0.005534     0.003793     0.009791    -0.012908     0.012921    -0.006977    -0.092715    -0.103481    -0.045074    -0.021050     0.066125
    2 C      7.307919    -8.123056   -17.093674    -0.121340     0.013965    -0.026068     0.021655     0.036654    -0.013308     0.011774    -0.022238    -0.054084     0.117726    -0.050278    -0.003156     0.053433
    3 C      7.490872    -9.548094   -16.997921    -0.128267    -0.000552     0.025554     0.013121     0.028731     0.001192     0.000117     0.026191    -0.054547     0.065085    -0.038151    -0.007242     0.045393
    4 C      7.643022   -10.075535   -15.655644     0.032957    -0.004387     0.009107    -0.001969     0.010298    -0.020643     0.010279    -0.005694    -0.161199    -0.002902    -0.083807    -0.000445     0.084253
    5 C      7.653883    -9.219595   -14.491181    -0.124826    -0.003052     0.020608    -0.019703     0.028674    -0.007930     0.009508    -0.019740    -0.034047     0.113923    -0.038159    -0.009595     0.047754
    6 C      7.484404    -7.833657   -14.699442    -0.138502     0.005291    -0.025910    -0.010035     0.028285     0.001520    -0.003062     0.022900    -0.042086     0.075870    -0.034063    -0.007225     0.041288
    7 H      7.193861    -7.737206   -18.096263     0.110364    -0.002785     0.009889    -0.050597     0.051629    -0.004382     0.003456    -0.001263    -0.030059     0.072488    -0.027939     0.003430     0.024508
    8 H      7.510155   -10.178596   -17.796579     0.153069     0.001579    -0.033029    -0.037456     0.049964    -0.002961     0.001026     0.008905    -0.031036     0.038932    -0.022392     0.002240     0.020151
    9 H      7.752123    -9.662956   -13.557311     0.148544     0.004867    -0.024516     0.044540     0.051074    -0.003320     0.003027    -0.007327    -0.028874     0.053370    -0.023829     0.002229     0.021599
   10 H      7.470227    -7.208021   -13.822882     0.115349    -0.001752     0.021880     0.045779     0.050770    -0.004306     0.000774     0.007840    -0.025040     0.073543    -0.025585    -0.001247     0.026832
   11 C      7.828515   -11.476636   -15.510207     0.320001    -0.005135     0.054815    -0.019964     0.058563     0.018299     0.005315     0.026112     0.119443     0.266883    -0.110102     0.016902     0.093200
   12 N      7.933326   -12.533684   -15.393597    -0.268198     0.001834    -0.042282    -0.011488     0.043854     0.022619    -0.006793     0.032763     0.224171     0.272315    -0.164077     0.068507     0.095570
   13 C      8.504338   -24.864927   -14.735620     0.098055    -0.000592     0.000961    -0.005525     0.005639    -0.010200     0.016434    -0.012320    -0.087061    -0.046531    -0.045043    -0.010335     0.055378
   14 C      7.219703   -24.392535   -14.984510    -0.136939     0.006967     0.017878    -0.015945     0.024948     0.014200     0.008260     0.006937     0.004033    -0.083672    -0.029891    -0.000396     0.030287
   15 C      7.053438   -23.023602   -15.196562    -0.112476     0.016924    -0.020270    -0.006414     0.027174    -0.015460     0.018405    -0.000847     0.042918    -0.072484    -0.030236    -0.013009     0.043245
   16 C      8.187792   -22.161683   -15.002413     0.023075    -0.000938    -0.009383     0.003004     0.009896    -0.010715     0.008757    -0.009980    -0.076079    -0.245867    -0.083336     0.002082     0.081254
   17 C      9.529946   -22.707363   -14.891586    -0.110483    -0.014810    -0.029604    -0.026245     0.042244     0.025325     0.000109    -0.003397     0.010862    -0.100851    -0.033967    -0.008798     0.042765
   18 C      9.656396   -24.099114   -14.602489    -0.155001    -0.007473     0.023370    -0.004988     0.025037    -0.011785     0.011654    -0.018097     0.020210    -0.087107    -0.037570     0.002112     0.035458
   19 H      6.385631   -25.030857   -15.085092     0.130753    -0.039850    -0.024864    -0.006986     0.047487     0.007850     0.005663    -0.001435     0.015430    -0.067274    -0.023424     0.000717     0.022707
   20 H      6.131209   -22.581229   -15.375565     0.135190    -0.047368     0.023495    -0.010098     0.053830    -0.007189     0.007603    -0.002790     0.011258    -0.067749    -0.024068     0.002184     0.021883
   21 H     10.323383   -22.033711   -14.731988     0.143974     0.038391     0.035664     0.010264     0.053396     0.009306     0.008261     0.001840     0.002751    -0.067383    -0.024311     0.002398     0.021913
   22 H     10.603736   -24.482797   -14.407610     0.129546     0.044556    -0.010329     0.007770     0.046393    -0.001641     0.006843    -0.005661     0.016259    -0.067128    -0.024507     0.003725     0.020782
   23 C      8.066504   -20.774336   -15.227180     0.326784     0.004227    -0.052821     0.008405     0.053653     0.016950     0.007777     0.020812     0.199585     0.047266    -0.112261     0.017742     0.094519
   24 N      7.955848   -19.708500   -15.382325    -0.294232    -0.016036     0.044992    -0.008238     0.048469     0.017123     0.000133     0.028695     0.218097     0.188134    -0.145666     0.066208     0.079458
   25 C      8.260118    -2.740384   -14.977005    -0.086372     0.023498     0.038673     0.026119     0.052249    -0.015990    -0.037734    -0.017648    -0.101814    -0.112250    -0.076512     0.003015     0.073497
   26 C      7.109255    -5.798340   -16.187103    -0.176100    -0.017456    -0.035043    -0.005094     0.039480    -0.015574    -0.010621    -0.009101    -0.018844     0.014217    -0.026611     0.009743     0.016868
   27 C      7.582774    -3.409280   -15.682913    -0.100883    -0.018595    -0.059880    -0.020189     0.065871    -0.012180    -0.026424    -0.011059    -0.017850    -0.019897    -0.037928     0.017342     0.020586
   28 N      8.733640    -0.544012   -14.473188    -0.002134    -0.092820     0.004959    -0.094295     0.132407     0.010778    -0.095322     0.012030    -0.146403    -0.168942    -0.147217     0.044806     0.102410
   29 C      7.770019    -4.996996   -15.444000    -0.100776     0.008050     0.049361     0.014823     0.052163    -0.007937     0.002149    -0.016592    -0.054061    -0.082639    -0.031367    -0.014396     0.045762
   30 C      8.684147   -26.434864   -14.544589    -0.176572     0.020384     0.038450     0.025793     0.050589     0.010751    -0.024282    -0.003589     0.040119     0.024927    -0.027177    -0.011277     0.038454
   31 C      7.947408   -27.214044   -15.261193    -0.089423    -0.023685    -0.045777    -0.021733     0.055936    -0.014935    -0.032987    -0.015702    -0.061671    -0.039367    -0.057069     0.014570     0.042499
   32 N      7.942946    -1.052989   -15.313837    -0.130942     0.134824    -0.060922     0.140279     0.203880     0.055074    -0.158793     0.055751    -0.160659    -0.183533    -0.232249     0.103405     0.128844
   33 H      8.995263    -2.768561   -14.220046     0.143081     0.023813     0.017126     0.023849     0.037803     0.002950     0.006162     0.002796     0.008648     0.007440    -0.006625    -0.003387     0.010012
   34 H      6.494588    -5.592810   -16.987881     0.136269    -0.025062     0.000185    -0.032677     0.041182    -0.001975     0.018155    -0.000514    -0.001580     0.010713    -0.017998    -0.001053     0.019050
   35 H      6.857316    -3.222167   -16.444884     0.152303    -0.032217    -0.003569    -0.033329     0.046492    -0.001378     0.019358    -0.001325     0.018725     0.021486    -0.013068    -0.012868     0.025936
   36 H      8.478663    -5.186079   -14.702693     0.122392     0.036944    -0.001157     0.031721     0.048708    -0.002553     0.018391    -0.000205     0.009059    -0.001133    -0.016587    -0.004318     0.020905
   37 H      9.472530   -26.673762   -13.864148     0.141597     0.035341     0.001220     0.031795     0.047554    -0.001536     0.020319    -0.002630     0.017861     0.015115    -0.014821    -0.011463     0.026284
   38 H      7.275205   -27.107995   -15.980005     0.144274    -0.030652     0.005962    -0.039742     0.050542    -0.007428     0.012575    -0.011877     0.017171     0.033363    -0.019171    -0.006074     0.025244
   39 C      8.059874   -16.129832    -8.554640     0.081661     0.001801     0.001533    -0.000052     0.002366     0.001518    -0.003236    -0.003426    -0.011629     0.126445    -0.027197    -0.015314     0.042511
   40 C      8.952094   -15.312939    -9.180261    -0.088357    -0.029159    -0.003023    -0.007935     0.030371    -0.058139     0.017373     0.020844    -0.000360    -0.051890    -0.064857    -0.002011     0.066868
   41 C      8.970649   -15.346434   -10.671320    -0.096979    -0.024455    -0.021102     0.013094     0.034854    -0.018435    -0.022447    -0.014174    -0.012317     0.031754    -0.038925     0.013967     0.024959
   42 C      8.029381   -16.116742   -11.333419    -0.022460    -0.001745     0.001182     0.041034     0.041088    -0.016436     0.001378     0.001017    -0.019160    -0.031459    -0.014502    -0.009766     0.024268
   43 C      7.111786   -16.909949   -10.643455    -0.120920     0.023748     0.014243     0.008429     0.028946     0.013200     0.014812     0.009888    -0.004459     0.019157    -0.018271    -0.007496     0.025767
   44 C      7.121166   -16.884615    -9.150027    -0.118911     0.005499     0.011545    -0.005954     0.014106     0.020415    -0.017824    -0.011533     0.015013     0.041072    -0.028614    -0.006914     0.035528
   45 H      9.712315   -14.721551    -8.744203     0.100137     0.045363     0.034025     0.018000     0.059493     0.024275     0.005225     0.004724     0.011948    -0.018087    -0.022001    -0.007406     0.029407
   46 H      9.650907   -14.703205   -11.216380     0.134169     0.031500     0.034477    -0.034276     0.057929     0.023059    -0.010664    -0.005709     0.001348    -0.001821    -0.023326    -0.004790     0.028116
   47 H      6.405786   -17.509832   -11.204188     0.132110    -0.031790    -0.028968    -0.033470     0.054498     0.021849     0.007745     0.003747     0.002646     0.005002    -0.023010    -0.001070     0.024080
   48 H      6.393635   -17.517140    -8.713900     0.117577    -0.039322    -0.031768     0.011483     0.051839     0.025454    -0.002680    -0.003284     0.009339    -0.005485    -0.024993    -0.002393     0.027386
   49 C      7.842506   -16.065549   -22.184319     0.149047     0.010904     0.020178    -0.031116     0.038655    -0.000944     0.007283    -0.000450    -0.010718     0.188922    -0.037448    -0.026058     0.063506
   50 C      6.850307   -15.463778   -21.544356    -0.140554     0.000461    -0.023419     0.018001     0.029541     0.028803     0.021745    -0.012017     0.029102    -0.016013    -0.042773     0.003844     0.038930
   51 C      6.918295   -15.333176   -20.037237    -0.085484     0.025967     0.039700    -0.003513     0.047568     0.007986    -0.005402     0.027914     0.002217     0.036308    -0.030668    -0.001333     0.032002
   52 C      7.850748   -16.123297   -19.509959    -0.012308     0.016487    -0.001664    -0.043999     0.047016     0.014296    -0.002032    -0.009333    -0.062404     0.017128    -0.037176     0.002554     0.034622
   53 C      8.798316   -16.841558   -20.127364    -0.103581    -0.020086     0.011141    -0.005931     0.023722    -0.002767     0.014318    -0.012595    -0.003622     0.056309    -0.017657    -0.011296     0.028953
   54 C      8.805746   -16.832480   -21.601460    -0.137708    -0.004417     0.016385     0.007390     0.018509     0.027277    -0.021453     0.012358     0.013346    -0.010168    -0.040912     0.008015     0.032897
   55 H      6.144120   -14.839737   -21.961286     0.092853    -0.035452     0.035553    -0.012751     0.051802    -0.023394     0.000944    -0.004239     0.005268    -0.009017    -0.022375    -0.003109     0.025484
   56 H      6.188989   -14.836664   -19.548437     0.139925    -0.031991     0.024314     0.023890     0.046748    -0.016959    -0.007135     0.002670     0.014997    -0.003568    -0.018126    -0.003448     0.021574
   57 H      9.556403   -17.407019   -19.573104     0.133695     0.037106    -0.026362     0.033496     0.056514    -0.022341     0.009382    -0.002638     0.012664     0.003863    -0.024392    -0.001559     0.025951
   58 H      9.549395   -17.404934   -22.016513     0.113013     0.042551    -0.028335    -0.011013     0.052295    -0.024594    -0.002491     0.002215     0.012452    -0.009690    -0.023758    -0.003590     0.027347
   59 C      8.113207   -16.119174    -4.521430    -0.054085    -0.096857     0.000578    -0.094014     0.134982    -0.015408    -0.008463     0.000628    -0.013452    -0.327469    -0.109612     0.038073     0.071539
   60 C      7.808653   -16.097210   -23.729774    -0.049902     0.007881     0.003673     0.135041     0.135320    -0.023893    -0.000468    -0.002241     0.018950    -0.264433    -0.088191     0.018411     0.069780
   61 C      8.128218   -16.120957    -3.224541    -0.028079    -0.023614     0.001605     0.112749     0.115207    -0.003894     0.029862     0.000349    -0.008284    -0.134876    -0.056860     0.024517     0.032343
   62 C      8.161158   -16.127672    -1.858594    -0.059920    -0.000105    -0.002739    -0.143617     0.143643     0.007641     0.005565     0.000468    -0.000626    -0.230042    -0.076950     0.030818     0.046132
   63 C      8.075637   -16.116741    -7.172723    -0.067857    -0.003560    -0.000296    -0.072228     0.072317     0.033417    -0.003351    -0.001330    -0.000275    -0.254203    -0.084824     0.008972     0.075852
   64 C      8.093156   -16.113656    -5.834401    -0.103950    -0.018581     0.002872     0.088456     0.090432    -0.024040    -0.032333     0.002790    -0.007490    -0.286270    -0.102598     0.027225     0.075373
   65 C      1.095129   -16.096194   -14.726945     0.089423    -0.008315    -0.006467    -0.013189     0.016880     0.000016    -0.001477    -0.007052     0.096206    -0.037790    -0.043419    -0.011015     0.054434
   66 C      1.904894   -16.427408   -13.601151    -0.178762     0.020113    -0.006469    -0.016579     0.026856     0.009502    -0.021321    -0.015866     0.039296     0.086544    -0.038360    -0.007338     0.045698
   67 C      3.357569   -16.421837   -13.766502    -0.113691    -0.019675     0.000766    -0.029079     0.035118    -0.006195     0.018350    -0.015366     0.050290     0.034279    -0.035853    -0.001498     0.037351
   68 C      3.958552   -16.105384   -15.015126    -0.008624    -0.040115    -0.003501     0.004728     0.040544    -0.003688     0.001736     0.004453    -0.030151    -0.030255    -0.012805    -0.008330     0.021134
   69 C      3.128147   -15.796901   -16.111151    -0.115264    -0.009936    -0.008738     0.031166     0.033858    -0.000443    -0.020849    -0.009169     0.030617     0.071838    -0.029508    -0.008275     0.037783
   70 C      1.693746   -15.784490   -16.001254    -0.156322     0.013016    -0.006726     0.021731     0.026209    -0.006032     0.019574    -0.019057     0.055840     0.053239    -0.042792     0.000780     0.042013
   71 H      1.523216   -16.636544   -12.673415     0.131917    -0.013299    -0.009918     0.043102     0.046184     0.000780    -0.003307    -0.008648     0.022911     0.057712    -0.022852     0.001254     0.021598
   72 H      3.982301   -16.645747   -12.946535     0.119350     0.032945    -0.010619     0.033726     0.048328    -0.001175     0.003583    -0.010287     0.028067     0.029522    -0.022251     0.006851     0.015400
   73 H      3.586839   -15.577319   -17.041508     0.125348     0.026366     0.007824    -0.043350     0.051338    -0.001496    -0.006190    -0.009673     0.026840     0.047901    -0.024055     0.003575     0.020480
   74 H      1.118832   -15.574549   -16.837270     0.127169    -0.024524     0.010242    -0.040213     0.048202    -0.002274     0.006306    -0.010576     0.027921     0.051536    -0.025205     0.002778     0.022428
   75 C     14.718032   -16.275763   -15.963340     0.202613     0.031342     0.082071     0.032827     0.093784     0.001831     0.022317     0.022831     0.078797     0.064603    -0.057070     0.006627     0.050443
   76 C     14.127690   -14.922576   -15.951776    -0.062808     0.024639    -0.043134     0.000649     0.049679    -0.002695     0.016335     0.001414     0.001483    -0.118972    -0.043868     0.018348     0.025520
   77 C     12.636505   -14.938634   -15.805781    -0.090104    -0.010296    -0.057024    -0.005931     0.058249    -0.028672    -0.012611     0.004097    -0.035677    -0.073131    -0.032828    -0.014465     0.047294
   78 C     11.909879   -16.156304   -15.720591    -0.055793     0.059017     0.034870    -0.000817     0.068554    -0.007309    -0.006803    -0.002655    -0.004387    -0.018962    -0.012589     0.001535     0.011054
   79 C     12.698902   -17.331228   -15.865882    -0.102384     0.037735     0.038731    -0.002370     0.054126     0.020769    -0.001728    -0.016141     0.001951    -0.022266    -0.024793    -0.004220     0.029014
   80 C     14.071017   -17.178195   -16.007068    -0.089297    -0.079169    -0.016456    -0.020667     0.083461    -0.053110    -0.005073    -0.015824    -0.038795     0.047410    -0.066589     0.014997     0.051592
   81 H     14.583212   -13.977151   -15.971360     0.129360     0.016033     0.051205     0.000141     0.053657     0.003738     0.000367    -0.001785    -0.026216    -0.085097    -0.028431     0.000565     0.027866
   82 H     12.113313   -13.995626   -15.742477     0.123412    -0.033637     0.052299     0.004242     0.062327    -0.006954    -0.002605     0.000644    -0.036811    -0.063064    -0.021529    -0.008680     0.030210
   83 H     12.091517   -18.229402   -15.814947     0.111243    -0.044044    -0.038048     0.006876     0.058607     0.012360    -0.000897    -0.002891    -0.018453    -0.061819    -0.020814    -0.005105     0.025919
   84 H     14.566425   -18.263308   -16.043361     0.107120     0.013850    -0.040739     0.009986     0.044172    -0.009843    -0.001275    -0.005948    -0.013498    -0.073043    -0.025382     0.000822     0.024559
   85 C     20.045598   -16.156920   -16.520406    -0.163125     0.097898     0.008843    -0.007722     0.098599     0.001023    -0.004487    -0.009749    -0.076824     0.094715    -0.054435     0.016407     0.038029
   86 C     16.161495   -16.086853   -16.209679     0.333063    -0.102226     0.054398     0.007913     0.116069    -0.044122     0.003326     0.034068    -0.182123     0.118485    -0.121692     0.022454     0.099237
   87 C     18.718689   -16.138386   -16.423548     0.105929    -0.090963     0.001024    -0.004692     0.091090     0.002644     0.027388    -0.000344    -0.117417     0.127215    -0.085821     0.037559     0.048262
   88 C     17.408666   -16.142573   -16.241258    -0.465234     0.135336     0.008111    -0.017628     0.136720     0.001850     0.004773    -0.001640    -0.144423     0.169542    -0.100638     0.043785     0.056854
   89 C     -0.259551   -16.131627   -14.605960    -0.141554     0.093632    -0.003507    -0.018917     0.095589    -0.008648     0.013156    -0.028573    -0.119800     0.242850    -0.101695     0.008297     0.093398
   90 C     21.402804   -16.144307   -16.646856    -0.037060    -0.120212     0.006512     0.001695     0.120400    -0.002419     0.014354    -0.005011    -0.130851     0.126549    -0.088125     0.038809     0.049316
   91 Zn     7.980299   -14.653506   -15.394256     1.049870    -0.040868     0.034671    -0.032135     0.062489    -0.055498     0.006736    -0.055694     0.084472     0.082779    -0.101429     0.021280     0.080149
   92 Zn     7.951409   -17.609454   -15.381336     1.000841     0.012570    -0.033179    -0.001424     0.035509    -0.001987     0.005472    -0.018935     0.046670     0.074580    -0.041196     0.009301     0.031895
   93 C     10.656303   -16.268245   -15.614088     0.613943    -0.061558     0.014984     0.006520     0.063690    -0.021891     0.013606     0.008321    -0.064745     0.225945    -0.078292     0.001218     0.077075
   94 C      5.352002   -16.104422   -15.168760     0.602022     0.057049    -0.008309    -0.003950     0.057786     0.000617     0.024434    -0.006860    -0.002116     0.342971    -0.062039    -0.055937     0.117976
   95 C      7.841114   -16.112809   -17.973531     0.606326    -0.007812     0.004059     0.061453     0.062081    -0.009990     0.004950    -0.003921     0.154888    -0.205288    -0.069090    -0.043359     0.112450
   96 C      8.043759   -16.121862   -12.795224     0.628814     0.004274    -0.006080    -0.063657     0.064089     0.007413    -0.000857    -0.001267     0.163216    -0.180497    -0.060348    -0.051684     0.112032
   97 O      5.942369   -17.259770   -15.247975    -0.588171     0.004122     0.026573     0.001491     0.026932    -0.066760     0.006961     0.014316    -0.063334     0.059083    -0.085487     0.019873     0.065613
   98 O      9.902555   -17.140454   -15.471058    -0.519285     0.000094     0.043537     0.009860     0.044640     0.045630     0.004214     0.000033     0.038562     0.189549    -0.081164     0.017671     0.063493
   99 O      7.895236   -17.266411   -17.400060    -0.536558     0.000651     0.039586     0.027660     0.048297     0.005946     0.001134    -0.064103     0.021325    -0.048424    -0.074077     0.018617     0.055460
  100 O      7.992781   -17.273418   -13.395153    -0.593464     0.003879     0.022410    -0.010655     0.025115    -0.000570    -0.002254     0.079981     0.001688    -0.144890    -0.100144     0.024954     0.075190
  101 O      7.789640   -14.983583   -17.352495    -0.604347    -0.002973    -0.002859     0.010155     0.010961    -0.003305    -0.000779     0.090673    -0.033220    -0.105369    -0.097558     0.000862     0.096696
  102 O      9.873365   -14.932480   -15.492189    -0.708832    -0.000023    -0.038881     0.001535     0.038911    -0.071913    -0.025651    -0.003946     0.022971    -0.172125    -0.072593    -0.030737     0.103330
  103 O      5.958779   -14.969317   -15.264185    -0.549539     0.020217    -0.020006    -0.008696     0.029742     0.086532     0.006496    -0.028475    -0.056099     0.091162    -0.109664     0.026539     0.083125
  104 O      8.106588   -14.955069   -13.378790    -0.609074    -0.000656    -0.021658    -0.023643     0.032070    -0.017166     0.009178    -0.057814    -0.004110    -0.135229    -0.077741     0.012099     0.065642
 
The sperically averaged electron density of each atom fit to a function of the form exp(a - br) for r >=rmin_cloud_penetration
atom number,atomic symbol, x, y, z, a, b, Rsquared where a and b are in atomic units and Rsquared is the squared correlation coefficient
    1 C      7.323271    -7.352550   -15.977185     1.776516     2.340121     0.998181
    2 C      7.307919    -8.123056   -17.093674     2.230563     2.421772     0.997725
    3 C      7.490872    -9.548094   -16.997921     1.444957     2.286467     0.999256
    4 C      7.643022   -10.075535   -15.655644     2.267281     2.464739     0.998292
    5 C      7.653883    -9.219595   -14.491181     1.767836     2.346882     0.999422
    6 C      7.484404    -7.833657   -14.699442     1.942332     2.352076     0.998222
    7 H      7.193861    -7.737206   -18.096263    -0.386922     2.404649     0.999224
    8 H      7.510155   -10.178596   -17.796579    -1.454111     2.233163     0.999061
    9 H      7.752123    -9.662956   -13.557311    -1.051690     2.306739     0.998536
   10 H      7.470227    -7.208021   -13.822882    -0.805100     2.305904     0.999687
   11 C      7.828515   -11.476636   -15.510207     0.547623     2.190639     0.999920
   12 N      7.933326   -12.533684   -15.393597    -0.475524     1.971495     0.999303
   13 C      8.504338   -24.864927   -14.735620     2.113548     2.413518     0.998145
   14 C      7.219703   -24.392535   -14.984510     1.662504     2.307328     0.999039
   15 C      7.053438   -23.023602   -15.196562     1.870150     2.371830     0.999231
   16 C      8.187792   -22.161683   -15.002413     2.161761     2.443837     0.998181
   17 C      9.529946   -22.707363   -14.891586     1.495835     2.297810     0.999471
   18 C      9.656396   -24.099114   -14.602489     1.887023     2.355518     0.998765
   19 H      6.385631   -25.030857   -15.085092    -1.100609     2.256884     0.999919
   20 H      6.131209   -22.581229   -15.375565    -1.024992     2.325748     0.997597
   21 H     10.323383   -22.033711   -14.731988    -1.377524     2.225417     0.999462
   22 H     10.603736   -24.482797   -14.407610    -0.907141     2.325302     0.998909
   23 C      8.066504   -20.774336   -15.227180     0.591673     2.200744     0.999911
   24 N      7.955848   -19.708500   -15.382325    -0.474155     1.969681     0.999314
   25 C      8.260118    -2.740384   -14.977005     1.513346     2.264903     0.997797
   26 C      7.109255    -5.798340   -16.187103     1.412127     2.258598     0.999593
   27 C      7.582774    -3.409280   -15.682913     1.432233     2.271752     0.999536
   28 N      8.733640    -0.544012   -14.473188     2.063535     2.529378     0.999087
   29 C      7.770019    -4.996996   -15.444000     1.142040     2.216655     0.999002
   30 C      8.684147   -26.434864   -14.544589     1.234384     2.205233     0.999266
   31 C      7.947408   -27.214044   -15.261193     1.630509     2.274946     0.997751
   32 N      7.942946    -1.052989   -15.313837     1.976399     2.478600     0.998600
   33 H      8.995263    -2.768561   -14.220046    -0.199847     2.337505     0.997151
   34 H      6.494588    -5.592810   -16.987881    -0.836361     2.304141     0.999348
   35 H      6.857316    -3.222167   -16.444884    -0.007690     2.411509     0.996588
   36 H      8.478663    -5.186079   -14.702693    -0.887867     2.246820     0.999019
   37 H      9.472530   -26.673762   -13.864148    -0.537118     2.305382     0.998338
   38 H      7.275205   -27.107995   -15.980005    -0.483774     2.299414     0.998514
   39 C      8.059874   -16.129832    -8.554640     2.018895     2.383390     0.997762
   40 C      8.952094   -15.312939    -9.180261     1.920617     2.363410     0.998257
   41 C      8.970649   -15.346434   -10.671320     0.761056     2.152531     0.999517
   42 C      8.029381   -16.116742   -11.333419     1.101854     2.215796     0.999349
   43 C      7.111786   -16.909949   -10.643455     0.658413     2.113740     0.999854
   44 C      7.121166   -16.884615    -9.150027     1.677616     2.316375     0.999189
   45 H      9.712315   -14.721551    -8.744203    -0.546988     2.377628     0.998718
   46 H      9.650907   -14.703205   -11.216380    -1.735595     2.137248     0.999432
   47 H      6.405786   -17.509832   -11.204188    -1.670189     2.113633     0.999763
   48 H      6.393635   -17.517140    -8.713900    -0.623950     2.358743     0.998390
   49 C      7.842506   -16.065549   -22.184319     2.331219     2.457770     0.997397
   50 C      6.850307   -15.463778   -21.544356     1.679082     2.314527     0.999084
   51 C      6.918295   -15.333176   -20.037237     0.616747     2.122724     0.999429
   52 C      7.850748   -16.123297   -19.509959     1.461562     2.284902     0.998878
   53 C      8.798316   -16.841558   -20.127364     0.843142     2.153957     0.999852
   54 C      8.805746   -16.832480   -21.601460     1.722084     2.323418     0.998906
   55 H      6.144120   -14.839737   -21.961286    -0.594291     2.370576     0.998355
   56 H      6.188989   -14.836664   -19.548437    -1.954861     2.102980     0.999917
   57 H      9.556403   -17.407019   -19.573104    -1.667235     2.118463     0.999795
   58 H      9.549395   -17.404934   -22.016513    -0.751686     2.349602     0.997712
   59 C      8.113207   -16.119174    -4.521430     3.042205     2.594655     0.997754
   60 C      7.808653   -16.097210   -23.729774     2.527967     2.506411     0.996012
   61 C      8.128218   -16.120957    -3.224541     2.963653     2.594784     0.998054
   62 C      8.161158   -16.127672    -1.858594     2.759646     2.556507     0.997381
   63 C      8.075637   -16.116741    -7.172723     2.740978     2.526104     0.997019
   64 C      8.093156   -16.113656    -5.834401     3.048894     2.582893     0.996831
   65 C      1.095129   -16.096194   -14.726945     2.072531     2.398649     0.998067
   66 C      1.904894   -16.427408   -13.601151     1.446715     2.258534     0.999518
   67 C      3.357569   -16.421837   -13.766502     0.715074     2.113531     0.999924
   68 C      3.958552   -16.105384   -15.015126     1.148950     2.215101     0.998776
   69 C      3.128147   -15.796901   -16.111151     0.941422     2.166132     0.999680
   70 C      1.693746   -15.784490   -16.001254     1.695162     2.310123     0.999088
   71 H      1.523216   -16.636544   -12.673415    -0.777094     2.335836     0.998527
   72 H      3.982301   -16.645747   -12.946535    -1.318988     2.161204     0.999443
   73 H      3.586839   -15.577319   -17.041508    -1.443337     2.168152     0.999565
   74 H      1.118832   -15.574549   -16.837270    -0.653063     2.361210     0.998491
   75 C     14.718032   -16.275763   -15.963340     2.336976     2.462658     0.996814
   76 C     14.127690   -14.922576   -15.951776     1.952125     2.381511     0.998494
   77 C     12.636505   -14.938634   -15.805781     0.849606     2.153005     0.998963
   78 C     11.909879   -16.156304   -15.720591     0.936276     2.177881     0.999599
   79 C     12.698902   -17.331228   -15.865882     0.400131     2.063582     0.998994
   80 C     14.071017   -17.178195   -16.007068     1.714166     2.327496     0.998457
   81 H     14.583212   -13.977151   -15.971360    -0.327537     2.407195     0.998775
   82 H     12.113313   -13.995626   -15.742477    -1.352945     2.177940     0.997695
   83 H     12.091517   -18.229402   -15.814947    -1.916694     2.064456     0.999124
   84 H     14.566425   -18.263308   -16.043361    -0.432642     2.354071     0.999291
   85 C     20.045598   -16.156920   -16.520406     3.125139     2.595083     0.997368
   86 C     16.161495   -16.086853   -16.209679     2.274587     2.517424     0.998605
   87 C     18.718689   -16.138386   -16.423548     2.931002     2.630426     0.998815
   88 C     17.408666   -16.142573   -16.241258     1.903072     2.300824     0.998578
   89 C     -0.259551   -16.131627   -14.605960     2.608632     2.484221     0.996186
   90 C     21.402804   -16.144307   -16.646856     3.255062     2.663560     0.996940
   91 Zn     7.980299   -14.653506   -15.394256    -0.107238     1.858418     0.999414
   92 Zn     7.951409   -17.609454   -15.381336    -0.137350     1.856875     0.999441
   93 C     10.656303   -16.268245   -15.614088    -0.247834     1.981085     0.999789
   94 C      5.352002   -16.104422   -15.168760    -0.021351     2.013372     0.999848
   95 C      7.841114   -16.112809   -17.973531    -0.066519     2.011346     0.999881
   96 C      8.043759   -16.121862   -12.795224    -0.139574     1.999227     0.999795
   97 O      5.942369   -17.259770   -15.247975    -0.716654     1.876793     0.999930
   98 O      9.902555   -17.140454   -15.471058    -0.713097     1.869869     0.999964
   99 O      7.895236   -17.266411   -17.400060    -0.586702     1.911699     0.999954
  100 O      7.992781   -17.273418   -13.395153    -0.782602     1.863660     0.999957
  101 O      7.789640   -14.983583   -17.352495    -0.757027     1.861481     0.999916
  102 O      9.873365   -14.932480   -15.492189    -0.500010     1.897723     0.999780
  103 O      5.958779   -14.969317   -15.264185    -0.714281     1.877962     0.999951
  104 O      8.106588   -14.955069   -13.378790    -0.445790     1.913053     0.999994
 
 2025/04/09  10:04:06
