   97
jmolscript: load "" {1 1 1} spacegroup "x,y,z" unitcell [{     -0.006367   -17.037442     0.004470 }, {     -0.483689    -0.045340   -22.992667 }, {     22.887318    -0.039434    -2.267948 }]
C     11.855861   -10.165267   -18.302253     0.142930
C     11.384209    -9.580300   -17.092626    -0.119251
C     10.375598   -10.205950   -16.370690    -0.121192
C      9.819436   -11.396990   -16.860156     0.047226
C     10.282398   -12.007288   -18.050195    -0.082306
C     11.290254   -11.380634   -18.763516    -0.124028
H     11.797673    -8.649032   -16.726808     0.132884
H      9.991144    -9.804554   -15.441096     0.139832
H      9.837729   -12.934328   -18.376849     0.137255
H     11.646317   -11.813905   -19.695911     0.134119
C      8.782500   -12.009143   -16.103996     0.330606
N      7.971252   -12.519661   -15.503958    -0.332557
C     11.887848    -4.988694   -18.334820     0.162768
C     12.115247    -3.749635   -17.659290    -0.092886
C     11.114467    -3.137161   -16.922439    -0.074060
C      9.853954    -3.754852   -16.848837     0.033558
C      9.579236    -4.976130   -17.506542    -0.107390
C     10.588564    -5.588496   -18.228316    -0.131882
H     13.105167    -3.297737   -17.723596     0.126094
H     11.257451    -2.189816   -16.427570     0.127719
H      8.583021    -5.387767   -17.415856     0.135774
H     10.393690    -6.535365   -18.718247     0.127159
C      8.790048    -3.158298   -16.105831     0.319366
N      7.967160    -2.661717   -15.529785    -0.349381
C     13.708367    -8.873546   -19.627010    -0.085703
C     12.942974    -5.620075   -19.052795    -0.221697
C     12.888459    -9.543401   -19.049133    -0.067970
C     14.714572    -8.162811   -20.340590     0.129352
N     14.718466    -6.868407   -20.331703    -0.188362
C     13.745341    -6.241981   -19.641407     0.096462
H     15.505788    -8.688890   -20.906648     0.112086
C      8.072920   -16.093485    -8.629967     0.111858
C      7.022848   -16.740863    -9.333887    -0.148796
C      7.019074   -16.750032   -10.726230    -0.107341
C      8.024251   -16.095756   -11.440499     0.016453
C      9.049002   -15.452911   -10.753878    -0.087553
C      9.089920   -15.449155    -9.375468    -0.130199
H      6.227679    -0.209186    -8.819271     0.127022
H      6.248088    -0.192859   -11.317466     0.129131
H      9.794573   -14.964138   -11.379196     0.117812
H      9.919263   -14.941132    -8.892592     0.116219
C      7.801342   -16.112902   -22.367880     0.115776
C      8.827418   -15.436086   -21.659215    -0.145876
C      8.842108   -15.437239   -20.256506    -0.114850
C      7.853333   -16.105315   -19.544043     0.000268
C      6.846657   -16.788474   -20.216637    -0.107790
C      6.800767   -16.790615   -21.611130    -0.115540
H      9.614517   -14.905279   -22.173589     0.114798
H      9.610812   -14.940671   -19.679201     0.108780
H      6.117741    -0.261774   -19.610229     0.127260
H      5.995681    -0.286424   -22.098971     0.119360
C      8.164615   -16.086440    -4.633104    -0.005891
C      8.103983   -16.091916    -7.205235    -0.021600
C      8.133950   -16.086949    -5.962518    -0.086100
C      8.223000   -16.072339    -2.034743    -0.075857
C      8.252013   -16.070326    -0.784590    -0.062399
C      8.193513   -16.078959    -3.369401     0.050776
C      1.098995   -16.095327   -14.838687    -0.181753
C      1.783174   -16.638849   -15.966537    -0.192488
C      3.247216   -16.488363   -15.810332    -0.106175
C      3.706606   -16.286472   -15.425690    -0.044581
C      3.307592   -15.544958   -14.008347     0.409327
C      1.949567   -15.560641   -13.828921    -0.181750
H      1.124026    -0.050311   -16.780232     0.099645
H      3.609447    -0.047253   -16.964762     0.497207
H      3.992457   -15.124150   -13.245381     0.109107
H      1.522503   -15.105695   -12.913027     0.164730
C     14.751722   -16.131708   -16.205326     0.103853
C     14.155954   -15.518278   -15.030881    -0.134834
C     12.765086   -15.502799   -14.896469    -0.124604
C     11.882233   -16.092708   -15.866504    -0.031340
C     12.515303   -16.721066   -17.045510    -0.155312
C     13.952847   -16.659392   -17.107553    -0.141106
H     14.746666   -15.062848   -14.243136     0.117649
H     12.273461   -15.077814   -14.079576     0.124142
H     11.931644    -0.048006   -17.680290     0.126777
H     14.353605    -0.126212   -18.051363     0.092938
C     20.011436   -16.124732   -16.691832     0.033463
C     -0.319975   -16.093509   -14.683982    -0.173792
C     21.362120   -16.134422   -16.825543    -0.314938
C     17.426863   -16.120192   -16.433086    -0.128551
C     16.170578   -16.116566   -16.305273    -0.156779
C     18.760300   -16.121375   -16.565190     0.033207
Zn     7.855924   -14.579257   -15.444786     0.910697
Zn     7.876935    -0.595069   -15.455001     0.988553
C     10.585755   -16.120070   -15.711958     0.594167
C      5.173450   -16.126198   -15.285601     0.528485
C      7.845646   -16.095831   -18.041721     0.592475
C      8.030966   -16.110580   -12.912023     0.596095
O      5.986305    -0.192260   -15.369323    -0.441892
O      9.910261    -0.204593   -15.648525    -0.573677
O      7.788007    -0.192431   -17.489065    -0.543114
O      7.993104    -0.213531   -13.480477    -0.568733
O      7.904254   -14.949587   -17.483613    -0.522612
O      9.921081   -14.960149   -15.560800    -0.575323
O      5.934649   -14.931209   -15.322763    -0.677517
O      8.092817   -14.969335   -13.465913    -0.533893
 
 Chargemol version 3.5 September 26, 2017.
See ddec.sourceforge.net for latest version.
 
Computational parameters:
Number of radial integration shells =    100
Cutoff radius (pm) =    500
Error in the integrated total number of electrons before renormalization (e) =    1.5914E-01
Charge convergence tolerance =    1.0000E-05
Minimum radius for electron cloud penetration fitting (pm) =    200
Minimum decay exponent for electron density of buried atom tails =   1.7500
Maximum decay exponent for electron density of buried atom tails =  2.5000
Number of iterations to convergence =      7
 
The following XYZ coordinates are in angstroms. The atomic dipoles and quadrupoles are in atomic units.
atom number, atomic symbol, x, y, z, net_charge, dipole_x, dipole_y, dipole_z, dipole_mag, Qxy, Qxz, Qyz,Q(x^2-y^2), Q(3z^2 - R^2), three eigenvalues of traceless quadrupole moment tensor
    1 C     11.855861   -10.165267   -18.302253     0.142930     0.021548     0.009756    -0.009773     0.025593     0.026683    -0.025280    -0.009143     0.025571    -0.012612    -0.029777    -0.015874     0.045652
    2 C     11.384209    -9.580300   -17.092626    -0.119251    -0.008479    -0.018247     0.005744     0.020925     0.017282     0.000727     0.019158    -0.008302    -0.015833    -0.024397    -0.003863     0.028259
    3 C     10.375598   -10.205950   -16.370690    -0.121192     0.012858     0.008369    -0.024216     0.028667    -0.002756    -0.011179     0.027565    -0.007981     0.058551    -0.024940    -0.014502     0.039443
    4 C      9.819436   -11.396990   -16.860156     0.047226     0.003903    -0.002813    -0.015614     0.016338     0.048887    -0.041780    -0.001277     0.001433    -0.027796    -0.062254    -0.004864     0.067118
    5 C     10.282398   -12.007288   -18.050195    -0.082306     0.011792     0.013356     0.009500     0.020191     0.006172     0.001785     0.008784    -0.004630    -0.028154    -0.013251    -0.001000     0.014251
    6 C     11.290254   -11.380634   -18.763516    -0.124028    -0.010848     0.000308     0.015276     0.018738    -0.006814    -0.011975     0.014746    -0.006947     0.037460    -0.014973    -0.011700     0.026674
    7 H     11.797673    -8.649032   -16.726808     0.132884     0.020232     0.046782     0.023398     0.056084     0.016308    -0.004671     0.018377    -0.014230     0.004820    -0.026590     0.001139     0.025451
    8 H      9.991144    -9.804554   -15.441096     0.139832    -0.018972     0.021767     0.048784     0.056688     0.006546    -0.014673     0.015290    -0.005758     0.035322    -0.024932     0.000719     0.024213
    9 H      9.837729   -12.934328   -18.376849     0.137255    -0.022161    -0.045902    -0.013990     0.052857     0.007135    -0.008330     0.010115    -0.006814    -0.003355    -0.017311     0.005429     0.011882
   10 H     11.646317   -11.813905   -19.695911     0.134119     0.016354    -0.023619    -0.046828     0.054938     0.005291    -0.013222     0.016445    -0.009419     0.032409    -0.023859    -0.000562     0.024421
   11 C      8.782500   -12.009143   -16.103996     0.330606     0.032945     0.018248    -0.033449     0.050371    -0.054507     0.049606     0.074226    -0.101150     0.031477    -0.125231     0.019958     0.105273
   12 N      7.971252   -12.519661   -15.503958    -0.332557    -0.039460     0.001983     0.026348     0.047490    -0.054968     0.075963     0.045512    -0.035037     0.083857    -0.123237     0.042498     0.080739
   13 C     11.887848    -4.988694   -18.334820     0.162768     0.024566    -0.005422    -0.008687     0.026615    -0.015996    -0.025863     0.005081     0.030841     0.002241    -0.025120    -0.014190     0.039309
   14 C     12.115247    -3.749635   -17.659290    -0.092886    -0.019128    -0.001653     0.007472     0.020602     0.005321     0.001520     0.000597     0.027759    -0.000330    -0.014816    -0.000273     0.015089
   15 C     11.114467    -3.137161   -16.922439    -0.074060     0.006381    -0.026273    -0.005385     0.027568    -0.000303     0.023480     0.008749     0.002444     0.041172    -0.023205    -0.007550     0.030755
   16 C      9.853954    -3.754852   -16.848837     0.033558     0.005799     0.010524    -0.030607     0.032881    -0.021404    -0.032378     0.037709     0.015945    -0.112194    -0.062355    -0.002362     0.064717
   17 C      9.579236    -4.976130   -17.506542    -0.107390     0.021087     0.006332    -0.013047     0.025592     0.022582     0.005043     0.006478     0.027577    -0.073126    -0.026114    -0.013431     0.039545
   18 C     10.588564    -5.588496   -18.228316    -0.131882    -0.005482     0.024098     0.012787     0.027826     0.011822     0.011692     0.024837    -0.011442    -0.018537    -0.024946    -0.009617     0.034564
   19 H     13.105167    -3.297737   -17.723596     0.126094     0.050847     0.021542    -0.002125     0.055263     0.011034    -0.005382     0.007746     0.022349    -0.040144    -0.020722    -0.001798     0.022520
   20 H     11.257451    -2.189816   -16.427570     0.127719     0.009252     0.043401     0.027137     0.052016     0.006867     0.002009     0.008140     0.002627    -0.001570    -0.010233    -0.001274     0.011507
   21 H      8.583021    -5.387767   -17.415856     0.135774    -0.054024    -0.020833     0.002580     0.057959     0.012542    -0.007323     0.011088     0.019621    -0.049531    -0.026026     0.001763     0.024263
   22 H     10.393690    -6.535365   -18.718247     0.127159    -0.013846    -0.045417    -0.025874     0.054073     0.011866    -0.001361     0.020684    -0.003857    -0.029132    -0.025965     0.001179     0.024786
   23 C      8.790048    -3.158298   -16.105831     0.319366     0.023077    -0.023253    -0.028227     0.043244     0.101482     0.051525    -0.019246    -0.084966    -0.028753    -0.129311     0.013113     0.116198
   24 N      7.967160    -2.661717   -15.529785    -0.349381    -0.036630    -0.018383     0.027979     0.049623     0.068348     0.079953    -0.031709    -0.029815     0.068169    -0.127360     0.041021     0.086339
   25 C     13.708367    -8.873546   -19.627010    -0.085703     0.084189     0.087849    -0.055984     0.133938    -0.044760     0.035936     0.020388    -0.049005    -0.000241    -0.074057     0.022971     0.051086
   26 C     12.942974    -5.620075   -19.052795    -0.221697    -0.090520     0.098309     0.060522     0.146701     0.048274     0.085951    -0.004539     0.014427     0.113206    -0.100367    -0.007291     0.107658
   27 C     12.888459    -9.543401   -19.049133    -0.067970    -0.083247    -0.063970     0.067526     0.124828    -0.024304     0.069719     0.042105    -0.051004     0.084639    -0.100205     0.019429     0.080776
   28 C     14.714572    -8.162811   -20.340590     0.129352    -0.040344    -0.006568     0.031785     0.051779    -0.009048     0.021918     0.008181     0.065193     0.088836    -0.050294     0.003881     0.046413
   29 N     14.718466    -6.868407   -20.331703    -0.188362    -0.172678    -0.072388     0.120472     0.222646    -0.131964     0.081720     0.090495    -0.073361     0.048882    -0.209208     0.072973     0.136235
   30 C     13.745341    -6.241981   -19.641407     0.096462     0.118115    -0.046984    -0.089714     0.155587     0.027002     0.069381    -0.036893    -0.062498     0.059630    -0.101542     0.029707     0.071834
   31 H     15.505788    -8.688890   -20.906648     0.112086     0.053367    -0.028717    -0.036323     0.070655    -0.007521    -0.024460     0.005805     0.005968    -0.030952    -0.027240    -0.001239     0.028479
   32 C      8.072920   -16.093485    -8.629967     0.111858     0.010272    -0.010344     0.023325     0.027506     0.003669     0.003457    -0.005729     0.021485     0.155061    -0.037630    -0.014581     0.052211
   33 C      7.022848   -16.740863    -9.333887    -0.148796     0.004146     0.008325    -0.019972     0.022031     0.022741    -0.015956    -0.011622     0.027935    -0.003927    -0.026344    -0.010968     0.037312
   34 C      7.019074   -16.750032   -10.726230    -0.107341     0.014964     0.002379     0.015750     0.021855     0.011766     0.006170     0.007384    -0.003697     0.000243    -0.011952    -0.005307     0.017259
   35 C      8.024251   -16.095756   -11.440499     0.016453    -0.005649     0.026115     0.025631     0.037025    -0.013072    -0.001658     0.002039    -0.071245    -0.072148    -0.026581    -0.023460     0.050041
   36 C      9.049002   -15.452911   -10.753878    -0.087553    -0.032443     0.003330     0.010940     0.034399     0.005516    -0.001225    -0.014831     0.018708    -0.003997    -0.020718     0.006025     0.014693
   37 C      9.089920   -15.449155    -9.375468    -0.130199    -0.012580    -0.008579    -0.013732     0.020504     0.027449     0.021054     0.004507     0.010299    -0.007120    -0.031125    -0.007268     0.038392
   38 H      6.227679    -0.209186    -8.819271     0.127022    -0.045603    -0.027237     0.021331     0.057241     0.022905    -0.007122    -0.004961     0.023043     0.008152    -0.027007    -0.000326     0.027332
   39 H      6.248088    -0.192859   -11.317466     0.129131    -0.032655    -0.022347    -0.033262     0.051692     0.018678     0.007016     0.003131     0.013369     0.015195    -0.022455     0.001549     0.020905
   40 H      9.794573   -14.964138   -11.379196     0.117812     0.031386     0.024075    -0.036938     0.054121     0.019340    -0.008725    -0.003123     0.015649     0.021162    -0.024566     0.001995     0.022571
   41 H      9.919263   -14.941132    -8.892592     0.116219     0.043723     0.027509     0.017681     0.054599     0.023029     0.005353     0.001674     0.022153     0.006382    -0.026691     0.000952     0.025739
   42 C      7.801342   -16.112902   -22.367880     0.115776    -0.003085    -0.002820    -0.013584     0.014212     0.019919     0.007803     0.000666     0.010570     0.169590    -0.049044    -0.008322     0.057366
   43 C      8.827418   -15.436086   -21.659215    -0.145876    -0.016642    -0.022254     0.020988     0.034824     0.028746    -0.026056    -0.020581     0.032653     0.006194    -0.035129    -0.018115     0.053244
   44 C      8.842108   -15.437239   -20.256506    -0.114850    -0.021169    -0.013254    -0.018836     0.031283     0.023083     0.018125     0.013854     0.022053    -0.003397    -0.025313    -0.013712     0.039025
   45 C      7.853333   -16.105315   -19.544043     0.000268    -0.003640     0.001766    -0.039057     0.039266    -0.015376    -0.002120     0.000702    -0.029890    -0.010403    -0.019881    -0.003376     0.023258
   46 C      6.846657   -16.788474   -20.216637    -0.107790     0.022417     0.012491    -0.016421     0.030466     0.019285    -0.017946    -0.007652     0.003310    -0.000057    -0.022323    -0.008372     0.030694
   47 C      6.800767   -16.790615   -21.611130    -0.115540     0.017961     0.010531     0.012835     0.024459     0.030309     0.020183     0.014202     0.024393     0.008513    -0.034098    -0.011420     0.045518
   48 H      9.614517   -14.905279   -22.173589     0.114798     0.043874     0.028426    -0.024173     0.057596     0.023391    -0.006020    -0.005959     0.019466     0.010875    -0.027236     0.000691     0.026545
   49 H      9.610812   -14.940671   -19.679201     0.108780     0.034583     0.020583     0.031573     0.051151     0.018027     0.006893     0.000023     0.018455     0.016398    -0.023441     0.003477     0.019964
   50 H      6.117741    -0.261774   -19.610229     0.127260    -0.031971    -0.023959     0.034614     0.052861     0.018359    -0.007746    -0.001069     0.006002     0.020506    -0.022643     0.003725     0.018918
   51 H      5.995681    -0.286424   -22.098971     0.119360    -0.043411    -0.028821    -0.020126     0.055859     0.023602     0.005483     0.003217     0.019727     0.009182    -0.027115     0.001295     0.025820
   52 C      8.164615   -16.086440    -4.633104    -0.005891     0.004318     0.007106    -0.098545     0.098895     0.001933    -0.004393    -0.000223    -0.018583    -0.230601    -0.077049     0.029121     0.047928
   53 C      8.103983   -16.091916    -7.205235    -0.021600    -0.001728    -0.004341    -0.101463     0.101571     0.026452    -0.007460     0.003045     0.018968    -0.298710    -0.100054     0.022062     0.077992
   54 C      8.133950   -16.086949    -5.962518    -0.086100     0.004458     0.003711     0.111925     0.112075    -0.001897     0.001551     0.003689    -0.028062    -0.237620    -0.079334     0.025475     0.053858
   55 C      8.223000   -16.072339    -2.034743    -0.075857    -0.007275    -0.003174    -0.118926     0.119190     0.001491    -0.003769     0.000342     0.001799    -0.212937    -0.071113     0.033791     0.037322
   56 C      8.252013   -16.070326    -0.784590    -0.062399    -0.006809    -0.001993     0.099612     0.099864     0.034014    -0.006373    -0.002591     0.018673    -0.298393    -0.099731     0.014489     0.085243
   57 C      8.193513   -16.078959    -3.369401     0.050776     0.001964    -0.000852     0.105140     0.105161     0.015841    -0.006961    -0.005888     0.004991    -0.278320    -0.093307     0.030351     0.062956
   58 C      1.098995   -16.095327   -14.838687    -0.181753    -0.032523    -0.013960     0.007676     0.036216     0.058305     0.025155     0.033128     0.052727     0.053361    -0.075357    -0.004784     0.080141
   59 C      1.783174   -16.638849   -15.966537    -0.192488    -0.002061     0.054005     0.024155     0.059197     0.084230     0.079569     0.019257     0.165358    -0.226652    -0.106819    -0.074481     0.181299
   60 C      3.247216   -16.488363   -15.810332    -0.106175    -0.094228     0.021030    -0.021469     0.098905    -0.053814    -0.048615    -0.020107    -0.081509    -0.187882    -0.103572     0.004660     0.098912
   61 C      3.706606   -16.286472   -15.425690    -0.044581     0.035041     0.083458     0.099664     0.134633    -0.069264    -0.062487    -0.019245    -0.149818    -0.085565    -0.129786     0.013311     0.116475
   62 C      3.307592   -15.544958   -14.008347     0.409327    -0.004243    -0.014964    -0.171526     0.172230    -0.008400    -0.007306     0.021037     0.004772     0.607326    -0.110475    -0.093610     0.204086
   63 C      1.949567   -15.560641   -13.828921    -0.181750    -0.076205    -0.005362    -0.025740     0.080614     0.001211    -0.044792    -0.025411     0.010037     0.077963    -0.046447    -0.016364     0.062811
   64 H      1.124026    -0.050311   -16.780232     0.099645    -0.066473    -0.018226    -0.033739     0.076741     0.009700     0.011425     0.005810     0.022316     0.010322    -0.016647    -0.005238     0.021885
   65 H      3.609447    -0.047253   -16.964762     0.497207     0.027872    -0.009626    -0.027408     0.040258     0.008351    -0.004288     0.001950     0.022812     0.031796    -0.019774     0.006282     0.013493
   66 H      3.992457   -15.124150   -13.245381     0.109107     0.038375     0.036310     0.081403     0.097043     0.012760     0.014132     0.028282     0.034192     0.046050    -0.039913    -0.000938     0.040851
   67 H      1.522503   -15.105695   -12.913027     0.164730    -0.025817     0.012865     0.033681     0.044345    -0.000475    -0.005239     0.009870     0.017355     0.039150    -0.018373     0.000529     0.017844
   68 C     14.751722   -16.131708   -16.205326     0.103853     0.033414     0.007784     0.010523     0.035886    -0.002094    -0.009998     0.004445     0.053377    -0.033725    -0.022837    -0.011820     0.034657
   69 C     14.155954   -15.518278   -15.030881    -0.134834     0.000074    -0.011335    -0.022003     0.024751     0.010018     0.016129     0.016911     0.027139     0.004205    -0.025074    -0.006451     0.031525
   70 C     12.765086   -15.502799   -14.896469    -0.124604     0.002312    -0.014835    -0.034118     0.037276    -0.001360    -0.016272     0.025879     0.003795     0.033629    -0.028794    -0.005910     0.034704
   71 C     11.882233   -16.092708   -15.866504    -0.031340     0.053912     0.007684    -0.001532     0.054479    -0.003161    -0.002163     0.007961    -0.021594     0.010665    -0.013103    -0.002129     0.015232
   72 C     12.515303   -16.721066   -17.045510    -0.155312     0.021801     0.004992     0.011128     0.024981     0.007448     0.016303     0.030074     0.012601     0.025937    -0.032997    -0.005971     0.038968
   73 C     13.952847   -16.659392   -17.107553    -0.141106    -0.032160     0.009466     0.018120     0.038108    -0.009761    -0.025933     0.017211     0.023373     0.015507    -0.025626    -0.014169     0.039796
   74 H     14.746666   -15.062848   -14.243136     0.117649     0.027626     0.024718     0.042457     0.056363     0.005582     0.007600     0.020196     0.018386     0.032315    -0.025800    -0.000103     0.025903
   75 H     12.273461   -15.077814   -14.079576     0.124142    -0.030189     0.020003     0.036531     0.051439     0.000798    -0.008863     0.017256     0.014613     0.024225    -0.022522     0.001322     0.021201
   76 H     11.931644    -0.048006   -17.680290     0.126777    -0.034310    -0.015672    -0.027142     0.046470     0.001911     0.007104     0.011218     0.023778     0.013000    -0.019429     0.002483     0.016945
   77 H     14.353605    -0.126212   -18.051363     0.092938     0.013260    -0.028862    -0.051080     0.060150    -0.001315    -0.002920     0.023309     0.014404     0.044084    -0.027445    -0.000505     0.027951
   78 C     20.011436   -16.124732   -16.691832     0.033463     0.114259     0.014335    -0.013596     0.115955    -0.014103    -0.029076    -0.016398    -0.091370     0.082501    -0.071525     0.024331     0.047194
   79 C     -0.319975   -16.093509   -14.683982    -0.173792     0.130443    -0.010930    -0.010274     0.131303    -0.005023     0.034600     0.036042    -0.201713     0.241583    -0.146931     0.036512     0.110419
   80 C     21.362120   -16.134422   -16.825543    -0.314938    -0.180025     0.001457    -0.007469     0.180186    -0.004281     0.017685     0.018403    -0.032358     0.057865    -0.034666    -0.000253     0.034919
   81 C     17.426863   -16.120192   -16.433086    -0.128551     0.115536     0.001502    -0.005498     0.115677    -0.002955     0.012241    -0.001824    -0.136932     0.123728    -0.090283     0.041680     0.048602
   82 C     16.170578   -16.116566   -16.305273    -0.156779    -0.101168     0.007109     0.020206     0.103410    -0.003405     0.006746     0.017923    -0.121127     0.162951    -0.088193     0.023468     0.064725
   83 C     18.760300   -16.121375   -16.565190     0.033207    -0.095133     0.014194     0.033678     0.101912     0.013949     0.024175    -0.002803    -0.096877     0.082509    -0.070216     0.033454     0.036763
   84 Zn     7.855924   -14.579257   -15.444786     0.910697    -0.017693     0.095495    -0.000188     0.097120    -0.007240     0.034289     0.004041     0.114491     0.082861    -0.071939     0.001152     0.070787
   85 Zn     7.876935    -0.595069   -15.455001     0.988553    -0.024522    -0.053288    -0.006877     0.059062    -0.028744     0.022972    -0.030329     0.111740     0.073805    -0.080985     0.009992     0.070993
   86 C     10.585755   -16.120070   -15.711958     0.594167    -0.063444    -0.002778     0.014129     0.065057     0.000278     0.021203     0.017320    -0.029441     0.337830    -0.073535    -0.043367     0.116902
   87 C      5.173450   -16.126198   -15.285601     0.528485     0.065452    -0.009813     0.002507     0.066231     0.020963     0.010800     0.028495     0.008370     0.312062    -0.074801    -0.035431     0.110232
   88 C      7.845646   -16.095831   -18.041721     0.592475    -0.011318     0.002556     0.059422     0.060544     0.011461    -0.002221    -0.002732     0.178506    -0.199583    -0.067196    -0.056084     0.123280
   89 C      8.030966   -16.110580   -12.912023     0.596095     0.007681    -0.002800    -0.046180     0.046898     0.011963    -0.011018     0.004185     0.151426    -0.249653    -0.084293    -0.034531     0.118824
   90 O      5.986305    -0.192260   -15.369323    -0.441892     0.029880     0.054989    -0.024758     0.067302    -0.056471    -0.011579    -0.020465    -0.018495     0.010705    -0.066061     0.009282     0.056778
   91 O      9.910261    -0.204593   -15.648525    -0.573677    -0.001925     0.030156     0.005875     0.030783     0.091890     0.007041    -0.019129    -0.060599     0.089979    -0.113753     0.029541     0.084212
   92 O      7.788007    -0.192431   -17.489065    -0.543114    -0.034591     0.034461     0.026556     0.055581     0.001832    -0.007746    -0.065461     0.023276    -0.110420    -0.084250     0.028842     0.055408
   93 O      7.993104    -0.213531   -13.480477    -0.568733     0.001352    -0.003901     0.014553     0.015127     0.000014    -0.001752     0.076444     0.008567    -0.176936    -0.104169     0.033768     0.070401
   94 O      7.904254   -14.949587   -17.483613    -0.522612    -0.004566    -0.018647     0.016011     0.024998     0.001865    -0.001354     0.077944    -0.004607    -0.131535    -0.094901     0.019647     0.075254
   95 O      9.921081   -14.960149   -15.560800    -0.575323    -0.004228    -0.035301     0.022227     0.041929    -0.097298     0.003329     0.012877    -0.057519     0.073615    -0.114505     0.024252     0.090253
   96 O      5.934649   -14.931209   -15.322763    -0.677517     0.009836    -0.013497    -0.034845     0.038640     0.077608     0.005268    -0.039737    -0.065464    -0.061922    -0.085524    -0.016693     0.102218
   97 O      8.092817   -14.969335   -13.465913    -0.533893     0.033841    -0.002215     0.005636     0.034378     0.001912    -0.011878    -0.076180    -0.019220    -0.103419    -0.086751     0.007493     0.079258
 
The sperically averaged electron density of each atom fit to a function of the form exp(a - br) for r >=rmin_cloud_penetration
atom number,atomic symbol, x, y, z, a, b, Rsquared where a and b are in atomic units and Rsquared is the squared correlation coefficient
    1 C     11.855861   -10.165267   -18.302253     1.310447     2.257251     0.998022
    2 C     11.384209    -9.580300   -17.092626     0.785751     2.130766     0.999781
    3 C     10.375598   -10.205950   -16.370690     0.717867     2.150002     0.999056
    4 C      9.819436   -11.396990   -16.860156     1.358763     2.271873     0.998973
    5 C     10.282398   -12.007288   -18.050195     0.057609     1.974349     0.999951
    6 C     11.290254   -11.380634   -18.763516     0.307753     2.054138     0.999532
    7 H     11.797673    -8.649032   -16.726808    -1.137167     2.192758     0.999348
    8 H      9.991144    -9.804554   -15.441096    -1.420053     2.236675     0.998224
    9 H      9.837729   -12.934328   -18.376849    -1.386482     2.070178     0.999141
   10 H     11.646317   -11.813905   -19.695911    -2.004097     2.088422     0.999190
   11 C      8.782500   -12.009143   -16.103996     0.920439     2.222566     0.999641
   12 N      7.971252   -12.519661   -15.503958    -0.184831     2.002422     0.998964
   13 C     11.887848    -4.988694   -18.334820     1.336466     2.271802     0.997475
   14 C     12.115247    -3.749635   -17.659290     0.553893     2.103742     0.999653
   15 C     11.114467    -3.137161   -16.922439     0.314325     2.031088     0.999927
   16 C      9.853954    -3.754852   -16.848837     1.534589     2.312733     0.998870
   17 C      9.579236    -4.976130   -17.506542     0.852328     2.180001     0.999010
   18 C     10.588564    -5.588496   -18.228316     1.112944     2.191989     0.999235
   19 H     13.105167    -3.297737   -17.723596    -1.460022     2.153614     0.998603
   20 H     11.257451    -2.189816   -16.427570    -1.288725     2.094005     0.999626
   21 H      8.583021    -5.387767   -17.415856    -1.510596     2.218595     0.997738
   22 H     10.393690    -6.535365   -18.718247    -0.853125     2.234446     0.999149
   23 C      8.790048    -3.158298   -16.105831     0.920646     2.231987     0.999612
   24 N      7.967160    -2.661717   -15.529785    -0.333283     1.981369     0.999361
   25 C     13.708367    -8.873546   -19.627010     1.763677     2.344494     0.999233
   26 C     12.942974    -5.620075   -19.052795     0.791883     2.129839     0.999762
   27 C     12.888459    -9.543401   -19.049133     1.557981     2.308360     0.999471
   28 C     14.714572    -8.162811   -20.340590     3.118749     2.665873     0.997031
   29 N     14.718466    -6.868407   -20.331703     2.302761     2.504298     0.997435
   30 C     13.745341    -6.241981   -19.641407     2.181727     2.444012     0.997391
   31 H     15.505788    -8.688890   -20.906648    -0.260912     2.413825     0.997639
   32 C      8.072920   -16.093485    -8.629967     2.112894     2.403711     0.997802
   33 C      7.022848   -16.740863    -9.333887     1.329470     2.250534     0.999559
   34 C      7.019074   -16.750032   -10.726230     0.555683     2.091828     0.999987
   35 C      8.024251   -16.095756   -11.440499     1.078975     2.206932     0.999145
   36 C      9.049002   -15.452911   -10.753878     0.789630     2.150619     0.999464
   37 C      9.089920   -15.449155    -9.375468     1.778526     2.335552     0.998987
   38 H      6.227679    -0.209186    -8.819271    -1.088446     2.286990     0.997495
   39 H      6.248088    -0.192859   -11.317466    -1.323802     2.156774     0.999208
   40 H      9.794573   -14.964138   -11.379196    -1.646915     2.130249     0.999816
   41 H      9.919263   -14.941132    -8.892592    -0.547229     2.366199     0.998576
   42 C      7.801342   -16.112902   -22.367880     2.201531     2.420056     0.997330
   43 C      8.827418   -15.436086   -21.659215     0.941358     2.168331     0.999607
   44 C      8.842108   -15.437239   -20.256506     0.104331     1.988612     0.999832
   45 C      7.853333   -16.105315   -19.544043     0.481520     2.089383     0.998629
   46 C      6.846657   -16.788474   -20.216637     0.065707     1.996701     0.998719
   47 C      6.800767   -16.790615   -21.611130     1.139338     2.217805     0.999022
   48 H      9.614517   -14.905279   -22.173589    -1.282481     2.231319     0.998649
   49 H      9.610812   -14.940671   -19.679201    -1.803310     2.018429     0.999137
   50 H      6.117741    -0.261774   -19.610229    -2.233930     1.955344     0.999832
   51 H      5.995681    -0.286424   -22.098971    -1.612735     2.164980     0.996563
   52 C      8.164615   -16.086440    -4.633104     3.643466     2.735616     0.995532
   53 C      8.103983   -16.091916    -7.205235     3.084563     2.608248     0.995199
   54 C      8.133950   -16.086949    -5.962518     2.936480     2.576776     0.997667
   55 C      8.223000   -16.072339    -2.034743     2.864664     2.571192     0.997620
   56 C      8.252013   -16.070326    -0.784590     2.945838     2.577163     0.996408
   57 C      8.193513   -16.078959    -3.369401     3.647095     2.738058     0.995210
   58 C      1.098995   -16.095327   -14.838687     1.743880     2.265555     0.997162
   59 C      1.783174   -16.638849   -15.966537    -0.169133     1.959659     0.997600
   60 C      3.247216   -16.488363   -15.810332    -0.300275     1.866156     0.999691
   61 C      3.706606   -16.286472   -15.425690    -0.664298     1.799134     0.999977
   62 C      3.307592   -15.544958   -14.008347     0.432526     2.131843     0.999476
   63 C      1.949567   -15.560641   -13.828921     0.672702     2.092381     0.999883
   64 H      1.124026    -0.050311   -16.780232    -1.109549     2.150002     0.999472
   65 H      3.609447    -0.047253   -16.964762    -2.121013     2.004696     0.997103
   66 H      3.992457   -15.124150   -13.245381    -1.099477     2.127719     0.999463
   67 H      1.522503   -15.105695   -12.913027    -0.875672     2.218219     0.998520
   68 C     14.751722   -16.131708   -16.205326     1.685755     2.328823     0.997560
   69 C     14.155954   -15.518278   -15.030881     0.881189     2.160037     0.998973
   70 C     12.765086   -15.502799   -14.896469     0.196020     2.011532     0.999079
   71 C     11.882233   -16.092708   -15.866504     0.162692     2.014221     0.999566
   72 C     12.515303   -16.721066   -17.045510    -0.199102     1.899837     0.999920
   73 C     13.952847   -16.659392   -17.107553     0.335894     2.042048     0.999559
   74 H     14.746666   -15.062848   -14.243136    -0.945553     2.282797     0.998026
   75 H     12.273461   -15.077814   -14.079576    -1.994767     2.041148     0.999814
   76 H     11.931644    -0.048006   -17.680290    -2.309004     1.939496     0.999419
   77 H     14.353605    -0.126212   -18.051363    -1.657420     2.120597     0.998494
   78 C     20.011436   -16.124732   -16.691832     2.645986     2.507736     0.996987
   79 C     -0.319975   -16.093509   -14.683982     2.070866     2.376424     0.998640
   80 C     21.362120   -16.134422   -16.825543     1.592815     2.247500     0.998965
   81 C     17.426863   -16.120192   -16.433086     2.590452     2.502385     0.998545
   82 C     16.170578   -16.116566   -16.305273     2.234208     2.407502     0.998790
   83 C     18.760300   -16.121375   -16.565190     3.698593     2.750389     0.994531
   84 Zn     7.855924   -14.579257   -15.444786     0.148145     1.866947     0.999534
   85 Zn     7.876935    -0.595069   -15.455001     0.009565     1.860304     0.999616
   86 C     10.585755   -16.120070   -15.711958    -0.643420     1.888456     0.999203
   87 C      5.173450   -16.126198   -15.285601    -0.352671     1.945351     0.999646
   88 C      7.845646   -16.095831   -18.041721    -0.600850     1.900930     0.999153
   89 C      8.030966   -16.110580   -12.912023    -0.093306     1.994931     0.999590
   90 O      5.986305    -0.192260   -15.369323    -0.813200     1.874713     0.999649
   91 O      9.910261    -0.204593   -15.648525    -0.915075     1.819386     0.999911
   92 O      7.788007    -0.192431   -17.489065    -0.982947     1.810520     0.999898
   93 O      7.993104    -0.213531   -13.480477    -0.539577     1.904380     0.999900
   94 O      7.904254   -14.949587   -17.483613    -0.881467     1.837084     0.999944
   95 O      9.921081   -14.960149   -15.560800    -0.901291     1.815873     0.999898
   96 O      5.934649   -14.931209   -15.322763    -0.381611     1.917580     0.999504
   97 O      8.092817   -14.969335   -13.465913    -0.577935     1.894079     0.999930
 
 2025/04/09  09:37:51
