   96
jmolscript: load "" {1 1 1} spacegroup "x,y,z" unitcell [{     -0.001286   -27.245450    -0.000857 }, {     -0.417775    -0.065533   -22.992095 }, {     22.895700    -0.041720    -2.141263 }]
C      7.947570    -7.109710   -15.368718     0.132025
C      8.652947    -7.853285   -16.356212    -0.121518
C      8.652374    -9.245541   -16.354707    -0.102414
C      7.948181    -9.954147   -15.367642     0.034094
C      7.243719    -9.244763   -14.382281    -0.105090
C      7.240203    -7.852762   -14.380278    -0.123308
H      9.209649    -7.346322   -17.135948     0.135663
H      9.183162    -9.821260   -17.098675     0.140501
H      6.710986    -9.820921   -13.637008     0.140190
H      6.684166    -7.346113   -13.599941     0.136576
C      7.946105   -11.364721   -15.368252     0.302072
N      7.945653   -12.538089   -15.367218    -0.302277
C      7.946883   -25.068416   -15.368279     0.129776
C      6.952208   -24.325941   -16.069480    -0.121201
C      6.964763   -22.930613   -16.072789    -0.104783
C      7.946461   -22.224111   -15.367679     0.029598
C      8.934127   -22.932563   -14.667217    -0.104121
C      8.936323   -24.323449   -14.664871    -0.120194
H      6.175034   -24.831045   -16.628470     0.135770
H      6.213546   -22.356818   -16.601512     0.135549
H      9.678755   -22.357007   -14.136922     0.136786
H      9.716938   -24.831010   -14.109786     0.134874
C      7.946058   -20.798213   -15.368843     0.313757
N      7.944787   -19.653823   -15.368192    -0.292761
C      7.947483    -1.841483   -15.368012    -0.000679
C      7.947263    -5.684047   -15.368219    -0.059578
C      7.947584    -0.492194   -15.367953    -0.030684
C      7.947433    -3.090048   -15.368056    -0.004130
C      7.947248    -4.439750   -15.368029    -0.026392
C      7.946357   -26.493255   -15.368927    -0.055388
C      8.092548   -16.078271    -8.510862     0.146032
C      8.835531   -15.145980    -9.243885    -0.130286
C      8.781214   -15.143025   -10.617347    -0.117176
C      8.030781   -16.092639   -11.317497    -0.024464
C      7.276676   -17.011465   -10.608927    -0.093888
C      7.276139   -17.012512    -9.224563    -0.127388
H      9.468230   -14.398735    -8.751896     0.118696
H      9.360327   -14.445908   -11.238757     0.120383
H      6.696131   -17.714179   -11.191901     0.127643
H      6.671451   -17.748067    -8.695849     0.119623
C      7.822742   -16.099496   -22.243439     0.103199
C      7.101676   -15.121413   -21.505360    -0.136171
C      7.140189   -15.128607   -20.114556    -0.109577
C      7.862709   -16.093406   -19.419543    -0.043361
C      8.570608   -17.066761   -20.121291    -0.032245
C      8.577335   -17.060586   -21.520359    -0.097044
H      6.517821   -14.359518   -22.004134     0.117658
H      6.616764   -14.386485   -19.512097     0.118822
H      9.121787   -17.779383   -19.530691     0.113419
H      9.138983   -17.835036   -22.019842     0.096916
C      7.800106   -16.109149   -23.657057    -0.048152
C      8.097094   -16.069137    -7.062379    -0.037303
C      8.167994   -16.054519    -3.252821    -0.033072
C      8.192267   -16.048471    -1.910002    -0.067921
C      8.145408   -16.058331    -4.495921    -0.030265
C      8.117508   -16.065391    -5.835831    -0.009413
C      1.001599   -16.249422   -14.664139     0.164636
C      1.809307   -14.913903   -15.067533    -0.161490
C      3.174583   -14.919576   -15.192331    -0.097927
C      3.904771   -16.095185   -15.001004    -0.003874
C      3.251082   -17.196925   -14.658967    -0.131153
C      1.929922   -17.197375   -14.539497    -0.022139
H      1.288755   -13.962548   -15.246353     0.111056
H      3.767472   -14.029472   -15.451661     0.115007
H      3.830158   -18.127349   -14.491201     0.127606
H      1.383146   -18.185392   -14.225989     0.098046
C     14.802956   -16.094465   -16.016500     0.142515
C     13.951441   -16.100529   -17.154052    -0.090481
C     12.560582   -16.095977   -17.010125    -0.115524
C     11.988015   -16.088625   -15.741334    -0.009694
C     12.797802   -16.089918   -14.610157    -0.131556
C     14.182642   -16.088931   -14.734277    -0.143899
H     14.358907   -16.105884   -18.151796     0.115832
H     11.878007   -16.097078   -17.849140     0.120432
H     12.290356   -16.080522   -13.656697     0.129611
H     14.771606   -16.084968   -13.831520     0.126142
C     16.202816   -16.100623   -16.145993    -0.105226
C     -0.275347   -16.021773   -14.621480     0.101564
C     18.752776   -16.107803   -16.385941    -0.036023
C     17.451607   -16.101769   -16.252659    -0.066559
C     19.989429   -16.113787   -16.493937    -0.004707
C     21.348677   -16.103623   -16.609154    -0.288562
Zn     7.933861   -14.527262   -15.373234     0.949076
Zn     7.941369   -17.652528   -15.370714     0.973377
C     10.508050   -16.096593   -15.566962     0.623424
C      5.385852   -16.107606   -15.181009     0.611536
C      7.844460   -16.093024   -17.931865     0.667296
C      8.047388   -16.085900   -12.792860     0.602084
O      5.949690   -17.246134   -15.234763    -0.557129
O      9.950731   -17.233361   -15.490816    -0.568385
O      7.893406   -17.243039   -17.372152    -0.636287
O      8.003631   -17.259327   -13.365443    -0.625458
O      7.788136   -14.942201   -17.368237    -0.596739
O      9.948698   -14.934241   -15.501782    -0.602566
O      5.952867   -14.934394   -15.270784    -0.619516
O      8.113078   -14.952131   -13.373971    -0.571723
 
 Chargemol version 3.5 September 26, 2017.
See ddec.sourceforge.net for latest version.
 
Computational parameters:
Number of radial integration shells =    100
Cutoff radius (pm) =    500
Error in the integrated total number of electrons before renormalization (e) =    2.0399E-01
Charge convergence tolerance =    1.0000E-05
Minimum radius for electron cloud penetration fitting (pm) =    200
Minimum decay exponent for electron density of buried atom tails =   1.7500
Maximum decay exponent for electron density of buried atom tails =  2.5000
Number of iterations to convergence =      7
 
The following XYZ coordinates are in angstroms. The atomic dipoles and quadrupoles are in atomic units.
atom number, atomic symbol, x, y, z, net_charge, dipole_x, dipole_y, dipole_z, dipole_mag, Qxy, Qxz, Qyz,Q(x^2-y^2), Q(3z^2 - R^2), three eigenvalues of traceless quadrupole moment tensor
    1 C      7.947570    -7.109710   -15.368718     0.132025     0.000271     0.025036     0.000086     0.025038    -0.000301    -0.013172     0.000316    -0.072481    -0.055580    -0.036585    -0.008922     0.045507
    2 C      8.652947    -7.853285   -16.356212    -0.121518    -0.010669    -0.019259     0.015547     0.026953     0.012719    -0.024867    -0.018060    -0.011717     0.021119    -0.027360    -0.011147     0.038507
    3 C      8.652374    -9.245541   -16.354707    -0.102414    -0.013079     0.025281     0.017458     0.033391    -0.011926    -0.026322     0.018122     0.002296     0.032152    -0.024322    -0.016252     0.040574
    4 C      7.948181    -9.954147   -15.367642     0.034094    -0.000687     0.006492    -0.000867     0.006586    -0.000527    -0.027357    -0.000288    -0.110952    -0.071921    -0.062779    -0.004686     0.067466
    5 C      7.243719    -9.244763   -14.382281    -0.105090     0.012173     0.025444    -0.017451     0.033168     0.012325    -0.026645    -0.017210     0.000775     0.036334    -0.024868    -0.015928     0.040796
    6 C      7.240203    -7.852762   -14.380278    -0.123308     0.010700    -0.019248    -0.015651     0.027017    -0.012440    -0.024307     0.017068    -0.012522     0.020746    -0.027094    -0.010147     0.037241
    7 H      9.209649    -7.346322   -17.135948     0.135663     0.029827     0.022687    -0.041557     0.055958     0.004622    -0.023171    -0.006519    -0.012443     0.019425    -0.025994     0.000186     0.025808
    8 H      9.183162    -9.821260   -17.098675     0.140501     0.027955    -0.031062    -0.038698     0.056955    -0.005733    -0.021291     0.008130    -0.016414     0.012247    -0.025548     0.000832     0.024716
    9 H      6.710986    -9.820921   -13.637008     0.140190    -0.028238    -0.030872     0.038935     0.057153     0.005746    -0.021388    -0.008083    -0.016739     0.012483    -0.025745     0.000969     0.024776
   10 H      6.684166    -7.346113   -13.599941     0.136576    -0.029828     0.022377     0.041853     0.056054    -0.004484    -0.022985     0.006359    -0.012701     0.018791    -0.025905     0.000491     0.025414
   11 C      7.946105   -11.364721   -15.368252     0.302072    -0.000044     0.042512     0.000212     0.042512    -0.000287    -0.040420    -0.000255     0.148378     0.203950    -0.108182     0.011351     0.096831
   12 N      7.945653   -12.538089   -15.367218    -0.302277     0.000411    -0.049287     0.002901     0.049374     0.000441    -0.012080    -0.002328     0.170926     0.181606    -0.115762     0.045502     0.070260
   13 C      7.946883   -25.068416   -15.368279     0.129776     0.000440    -0.024562     0.000638     0.024575     0.000251     0.014119     0.000380    -0.065441    -0.088660    -0.039014    -0.008487     0.047501
   14 C      6.952208   -24.325941   -16.069480    -0.121201     0.014106     0.020990     0.012604     0.028256     0.016691     0.025772     0.011416     0.003668    -0.033335    -0.029245    -0.008346     0.037592
   15 C      6.964763   -22.930613   -16.072789    -0.104783     0.014305    -0.025699     0.010462     0.031218    -0.020818     0.029242    -0.014039     0.020772    -0.017941    -0.027173    -0.019071     0.046244
   16 C      7.946461   -22.224111   -15.367679     0.029598     0.000017    -0.004697     0.004451     0.006471    -0.000005     0.031562     0.003388    -0.093076    -0.144232    -0.069400    -0.001283     0.070683
   17 C      8.934127   -22.932563   -14.667217    -0.104121    -0.014159    -0.023887    -0.010673     0.029748     0.019498     0.027223     0.014197     0.020126    -0.022035    -0.026046    -0.017892     0.043938
   18 C      8.936323   -24.323449   -14.664871    -0.120194    -0.015686     0.020288    -0.011254     0.028006    -0.016298     0.025758    -0.011589     0.004519    -0.031557    -0.028792    -0.008621     0.037413
   19 H      6.175034   -24.831045   -16.628470     0.135770    -0.041474    -0.022486    -0.029874     0.055840     0.006300     0.023132     0.004585     0.002654    -0.028068    -0.026049     0.000603     0.025446
   20 H      6.213546   -22.356818   -16.601512     0.135549    -0.041174     0.031590    -0.028605     0.059258    -0.008529     0.021777    -0.005944    -0.001986    -0.032906    -0.026347     0.000808     0.025539
   21 H      9.678755   -22.357007   -14.136922     0.136786     0.040433     0.032427     0.028858     0.059322     0.008429     0.021499     0.005989    -0.002556    -0.033195    -0.026228     0.001004     0.025224
   22 H      9.716938   -24.831010   -14.109786     0.134874     0.041912    -0.022531     0.029767     0.056128    -0.006432     0.022991    -0.004570     0.002695    -0.029028    -0.026065     0.000651     0.025414
   23 C      7.946058   -20.798213   -15.368843     0.313757     0.000907    -0.048247     0.004461     0.048461     0.000469     0.041003    -0.002976     0.176271     0.119337    -0.108095     0.010671     0.097424
   24 N      7.944787   -19.653823   -15.368192    -0.292761     0.000426     0.053743     0.003566     0.053863     0.000130     0.010992     0.001051     0.185778     0.177645    -0.122503     0.050073     0.072430
   25 C      7.947483    -1.841483   -15.368012    -0.000679    -0.000223     0.118683     0.000389     0.118684    -0.000033     0.005227     0.000133     0.123635     0.114924    -0.080972     0.034823     0.046149
   26 C      7.947263    -5.684047   -15.368219    -0.059578    -0.000314    -0.107869     0.000391     0.107870    -0.000048    -0.031368     0.000340     0.133946     0.176451    -0.096382     0.015072     0.081310
   27 C      7.947584    -0.492194   -15.367953    -0.030684    -0.000408    -0.121860    -0.000034     0.121860     0.000081    -0.007554    -0.000102     0.120060     0.129115    -0.081549     0.032889     0.048661
   28 C      7.947433    -3.090048   -15.368056    -0.004130    -0.000224    -0.118787     0.000322     0.118788    -0.000224    -0.003564    -0.000066     0.118089     0.123555    -0.079638     0.036002     0.043635
   29 C      7.947248    -4.439750   -15.368029    -0.026392    -0.000470     0.121069     0.000211     0.121070     0.000058     0.009360     0.000119     0.126910     0.113760    -0.082415     0.031287     0.051128
   30 C      7.946357   -26.493255   -15.368927    -0.055388    -0.000032     0.107238     0.000214     0.107238     0.000001     0.032767    -0.000121     0.158212     0.112000    -0.097773     0.014143     0.083630
   31 C      8.092548   -16.078271    -8.510862     0.146032    -0.001127    -0.005534     0.020002     0.020784     0.019302    -0.000304     0.004621    -0.020681     0.162282    -0.049012    -0.005393     0.054405
   32 C      8.835531   -15.145980    -9.243885    -0.130286    -0.003692    -0.014426    -0.011726     0.018954     0.023946     0.018863     0.021120    -0.005207     0.013869    -0.026399    -0.016388     0.042787
   33 C      8.781214   -15.143025   -10.617347    -0.117176    -0.023221    -0.017190     0.015524     0.032798     0.016032    -0.011550    -0.017469    -0.015022    -0.029606    -0.020137    -0.012755     0.032892
   34 C      8.030781   -16.092639   -11.317497    -0.024464    -0.004198    -0.000580     0.040086     0.040309    -0.012566     0.004014     0.002991    -0.015883    -0.006892    -0.015572    -0.000469     0.016041
   35 C      7.276676   -17.011465   -10.608927    -0.093888     0.017242     0.021915     0.014351     0.031361     0.014767     0.011206     0.014871    -0.012772    -0.020508    -0.016721    -0.012397     0.029119
   36 C      7.276139   -17.012512    -9.224563    -0.127388     0.015169     0.016140    -0.014627     0.026543     0.032043    -0.011692    -0.020855    -0.003909     0.009906    -0.034868    -0.008996     0.043864
   37 H      9.468230   -14.398735    -8.751896     0.118696     0.032260     0.036724     0.020856     0.053145     0.024330     0.004316     0.004253    -0.008833     0.014412    -0.027141     0.002939     0.024202
   38 H      9.360327   -14.445908   -11.238757     0.120383     0.027231     0.033514    -0.036335     0.056435     0.021691    -0.009850    -0.005820    -0.009247     0.004891    -0.023694    -0.002425     0.026120
   39 H      6.696131   -17.714179   -11.191901     0.127643    -0.026982    -0.033418    -0.033963     0.054757     0.021392     0.008390     0.005659    -0.009609     0.005451    -0.023230    -0.001835     0.025065
   40 H      6.671451   -17.748067    -8.695849     0.119623    -0.032622    -0.039643     0.023719     0.056554     0.024921    -0.003782    -0.006468    -0.007888     0.018164    -0.028312     0.003243     0.025069
   41 C      7.822742   -16.099496   -22.243439     0.103199    -0.009674    -0.000076    -0.019855     0.022087    -0.019132     0.003155     0.002124    -0.001479     0.137446    -0.042213    -0.003770     0.045983
   42 C      7.101676   -15.121413   -21.505360    -0.136171     0.004521    -0.020086     0.009454     0.022655    -0.020211     0.009188    -0.017383    -0.026999     0.007244    -0.025513    -0.009459     0.034972
   43 C      7.140189   -15.128607   -20.114556    -0.109577     0.005395    -0.021631    -0.008672     0.023921    -0.005514    -0.009322     0.014785    -0.022878    -0.014726    -0.017695    -0.006964     0.024659
   44 C      7.862709   -16.093406   -19.419543    -0.043361    -0.008632    -0.001804    -0.031734     0.032936     0.011905     0.005776     0.003083    -0.014692    -0.045238    -0.017049    -0.005299     0.022348
   45 C      8.570608   -17.066761   -20.121291    -0.032245    -0.024467     0.005213    -0.016703     0.030080     0.033576     0.013102    -0.009961     0.006173    -0.020198    -0.038604     0.001302     0.037303
   46 C      8.577335   -17.060586   -21.520359    -0.097044    -0.019001     0.013472     0.016134     0.028334     0.047143    -0.020009     0.013884    -0.012485    -0.042553    -0.054877     0.000110     0.054766
   47 H      6.517821   -14.359518   -22.004134     0.117658    -0.027106     0.038052    -0.020586     0.051053    -0.020949     0.003533    -0.004934    -0.013912     0.009795    -0.023706     0.001337     0.022368
   48 H      6.616764   -14.386485   -19.512097     0.118822    -0.024394     0.035667     0.035411     0.055867    -0.020166    -0.008784     0.006679    -0.015343     0.000741    -0.022291    -0.003507     0.025798
   49 H      9.121787   -17.779383   -19.530691     0.113419     0.020134    -0.026815     0.035742     0.049009    -0.016954     0.009558    -0.006544    -0.009700     0.008256    -0.019723    -0.002751     0.022474
   50 H      9.138983   -17.835036   -22.019842     0.096916     0.028186    -0.044323    -0.023477     0.057533    -0.023406    -0.005678     0.006523    -0.013855    -0.000238    -0.024388    -0.002790     0.027179
   51 C      7.800106   -16.109149   -23.657057    -0.048152    -0.001071    -0.003624     0.096942     0.097016    -0.050834    -0.007535    -0.005183    -0.017734    -0.302851    -0.101777    -0.000303     0.102080
   52 C      8.097094   -16.069137    -7.062379    -0.037303    -0.020518     0.002130    -0.105690     0.107684     0.124410    -0.021742    -0.003842    -0.127966    -0.256193    -0.109123    -0.074271     0.183394
   53 C      8.167994   -16.054519    -3.252821    -0.033072     0.001500    -0.002167     0.115981     0.116011    -0.001219    -0.002354    -0.000910    -0.002043    -0.238197    -0.079453     0.038163     0.041290
   54 C      8.192267   -16.048471    -1.910002    -0.067921    -0.002943    -0.002223    -0.118982     0.119039    -0.000204    -0.002051     0.001165     0.002103    -0.222085    -0.074078     0.035951     0.038127
   55 C      8.145408   -16.058331    -4.495921    -0.030265    -0.004328    -0.002065    -0.115721     0.115820     0.023131     0.008341     0.001198    -0.022755    -0.236616    -0.079522     0.014103     0.065419
   56 C      8.117508   -16.065391    -5.835831    -0.009413    -0.051916    -0.008080     0.115265     0.126675     0.124800     0.010785    -0.006046    -0.144142    -0.261477    -0.107904    -0.079791     0.187695
   57 C      1.001599   -16.249422   -14.664139     0.164636    -0.017031     0.004100    -0.000398     0.017522     0.034373    -0.016003    -0.016124     0.000906    -0.063179    -0.028137    -0.023834     0.051972
   58 C      1.809307   -14.913903   -15.067533    -0.161490     0.001630    -0.037726     0.008902     0.038796    -0.025168     0.000863    -0.007804    -0.055104    -0.103483    -0.035400    -0.019806     0.055206
   59 C      3.174583   -14.919576   -15.192331    -0.097927     0.002935    -0.037370     0.002838     0.037593     0.017658    -0.006494     0.002219    -0.036705    -0.025898    -0.024174    -0.005614     0.029788
   60 C      3.904771   -16.095185   -15.001004    -0.003874    -0.041663     0.015247    -0.007369     0.044973     0.000678     0.008878     0.008069     0.002649     0.049750    -0.012811    -0.008738     0.021549
   61 C      3.251082   -17.196925   -14.658967    -0.131153    -0.014922     0.015098    -0.004733     0.021749    -0.030325     0.008285     0.001292    -0.024082     0.020996    -0.037426     0.007710     0.029717
   62 C      1.929922   -17.197375   -14.539497    -0.022139     0.033624     0.032035    -0.002691     0.046519     0.034380    -0.014536    -0.023201    -0.034991     0.001715    -0.038864    -0.013811     0.052675
   63 H      1.288755   -13.962548   -15.246353     0.111056    -0.020930     0.052125    -0.008811     0.056857    -0.007758    -0.000317    -0.009212    -0.015908    -0.071119    -0.025697     0.001245     0.024452
   64 H      3.767472   -14.029472   -15.451661     0.115007     0.033456     0.041186    -0.012214     0.054450     0.008024    -0.005800    -0.009754    -0.030984    -0.050255    -0.020290    -0.008154     0.028444
   65 H      3.830158   -18.127349   -14.491201     0.127606     0.030369    -0.044643     0.006613     0.054397    -0.009783     0.003596    -0.009376    -0.028315    -0.056695    -0.021035    -0.007730     0.028765
   66 H      1.383146   -18.185392   -14.225989     0.098046    -0.034233    -0.039145     0.020552     0.055916     0.007194    -0.006291    -0.012893    -0.002220    -0.076699    -0.029802     0.005796     0.024006
   67 C     14.802956   -16.094465   -16.016500     0.142515     0.021630    -0.005371     0.002158     0.022391     0.005697    -0.003588    -0.000043     0.102017    -0.040995    -0.044494    -0.013843     0.058337
   68 C     13.951441   -16.100529   -17.154052    -0.090481    -0.034312     0.000268     0.025444     0.042718    -0.003481    -0.023055    -0.004041     0.001374     0.079080    -0.025296    -0.011882     0.037177
   69 C     12.560582   -16.095977   -17.010125    -0.115524     0.028859     0.003204     0.022843     0.036945     0.000176     0.018618    -0.004628     0.045251     0.045679    -0.030813    -0.003080     0.033894
   70 C     11.988015   -16.088625   -15.741334    -0.009694     0.034335    -0.001773    -0.002721     0.034488    -0.006376    -0.000065    -0.001627    -0.025853    -0.073099    -0.024423    -0.002222     0.026645
   71 C     12.797802   -16.089918   -14.610157    -0.131556     0.016143     0.002468    -0.025679     0.030432     0.003164    -0.016108     0.015330     0.030668     0.100836    -0.036876    -0.005376     0.042251
   72 C     14.182642   -16.088931   -14.734277    -0.143899    -0.021504     0.007184    -0.021369     0.031155     0.001982     0.027756     0.015170     0.051683     0.081092    -0.043009    -0.007356     0.050365
   73 H     14.358907   -16.105884   -18.151796     0.115832     0.016223    -0.000376    -0.052988     0.055417     0.000115    -0.005794     0.000203     0.027255     0.070206    -0.025330     0.000464     0.024866
   74 H     11.878007   -16.097078   -17.849140     0.120432    -0.038666     0.000531    -0.036243     0.052999    -0.000799     0.006947    -0.000979     0.036931     0.040831    -0.025306     0.005620     0.019686
   75 H     12.290356   -16.080522   -13.656697     0.129611    -0.028856     0.001541     0.042398     0.051309     0.000840    -0.007065     0.000005     0.033323     0.049908    -0.025001     0.004316     0.020685
   76 H     14.771606   -16.084968   -13.831520     0.126142     0.025343     0.001914     0.047037     0.053465    -0.000321     0.007744     0.000709     0.031399     0.062645    -0.026157     0.002082     0.024075
   77 C     16.202816   -16.100623   -16.145993    -0.105226    -0.103463     0.004506     0.013643     0.104456     0.005332     0.012748    -0.002599    -0.119910     0.235016    -0.100286     0.020952     0.079333
   78 C     -0.275347   -16.021773   -14.621480     0.101564     0.077097     0.028531    -0.008352     0.082630     0.032262     0.008337    -0.014544    -0.203053     0.091456    -0.122492     0.028484     0.094008
   79 C     18.752776   -16.107803   -16.385941    -0.036023    -0.110893     0.000961    -0.006675     0.111097    -0.002330     0.018316     0.004804    -0.122105     0.121071    -0.084003     0.037465     0.046538
   80 C     17.451607   -16.101769   -16.252659    -0.066559     0.111913     0.008374    -0.013619     0.113049    -0.001153     0.003084     0.005572    -0.121309     0.124794    -0.081545     0.035158     0.046387
   81 C     19.989429   -16.113787   -16.493937    -0.004707     0.118040    -0.005539    -0.011534     0.118732    -0.003361     0.011679    -0.001139    -0.111384     0.115324    -0.076196     0.035971     0.040225
   82 C     21.348677   -16.103623   -16.609154    -0.288562    -0.118879     0.009155    -0.001757     0.119244    -0.001357     0.012562    -0.002330    -0.097194     0.106574    -0.067897     0.029979     0.037918
   83 Zn     7.933861   -14.527262   -15.373234     0.949076    -0.000924     0.079159     0.010123     0.079809     0.005596     0.008955     0.010694     0.083503     0.109460    -0.061416     0.018939     0.042478
   84 Zn     7.941369   -17.652528   -15.370714     0.973377    -0.002882    -0.075774     0.001194     0.075839    -0.007250    -0.000844    -0.007239     0.081544     0.088125    -0.056716     0.026711     0.030004
   85 C     10.508050   -16.096593   -15.566962     0.623424    -0.052971     0.001848     0.007940     0.053594    -0.001636     0.024033     0.001817    -0.023680     0.375573    -0.077415    -0.050643     0.128058
   86 C      5.385852   -16.107606   -15.181009     0.611536     0.060860     0.004176    -0.012474     0.062265     0.000625     0.020538    -0.007934    -0.049680     0.290373    -0.075728    -0.024003     0.099731
   87 C      7.844460   -16.093024   -17.931865     0.667296    -0.007000    -0.002878     0.059688     0.060166    -0.011259     0.000627    -0.000432     0.142249    -0.219639    -0.073219    -0.035400     0.108619
   88 C      8.047388   -16.085900   -12.792860     0.602084    -0.003122    -0.005462    -0.058334     0.058672     0.012485    -0.000525     0.002040     0.138271    -0.227093    -0.075798    -0.032305     0.108103
   89 O      5.949690   -17.246134   -15.234763    -0.557129    -0.003409     0.013480     0.001521     0.013988    -0.064708     0.003689     0.003871    -0.046518     0.077287    -0.081898     0.025981     0.055916
   90 O      9.950731   -17.233361   -15.490816    -0.568385    -0.004723     0.002096     0.001653     0.005425     0.075813     0.012651    -0.009755    -0.080597     0.107631    -0.105577     0.037547     0.068030
   91 O      7.893406   -17.243039   -17.372152    -0.636287    -0.002106     0.010372    -0.002326     0.010836    -0.003432    -0.000595    -0.067333    -0.003302    -0.136911    -0.086543     0.021060     0.065482
   92 O      8.003631   -17.259327   -13.365443    -0.625458    -0.006051     0.009653     0.010247     0.015323    -0.002965    -0.003352     0.079453    -0.009322    -0.154636    -0.099973     0.020811     0.079162
   93 O      7.788136   -14.942201   -17.368237    -0.596739    -0.014259    -0.010857    -0.002283     0.018067     0.001304     0.004459     0.071231     0.007307    -0.144085    -0.092926     0.027426     0.065500
   94 O      9.948698   -14.934241   -15.501782    -0.602566    -0.005377    -0.003198     0.008330     0.010418    -0.081001     0.004965     0.010853    -0.089465     0.076202    -0.105964     0.025282     0.080682
   95 O      5.952867   -14.934394   -15.270784    -0.619516    -0.013496    -0.011102    -0.007557     0.019040     0.075145     0.009732    -0.008828    -0.069294     0.050434    -0.092687     0.018260     0.074427
   96 O      8.113078   -14.952131   -13.373971    -0.571723     0.011971    -0.006010    -0.002086     0.013557     0.001605    -0.001588    -0.079972     0.014660    -0.134603    -0.100292     0.029644     0.070648
 
The sperically averaged electron density of each atom fit to a function of the form exp(a - br) for r >=rmin_cloud_penetration
atom number,atomic symbol, x, y, z, a, b, Rsquared where a and b are in atomic units and Rsquared is the squared correlation coefficient
    1 C      7.947570    -7.109710   -15.368718     2.283459     2.438305     0.997389
    2 C      8.652947    -7.853285   -16.356212     2.163694     2.410252     0.997399
    3 C      8.652374    -9.245541   -16.354707     2.000495     2.396412     0.998997
    4 C      7.948181    -9.954147   -15.367642     2.428284     2.483801     0.997505
    5 C      7.243719    -9.244763   -14.382281     1.911454     2.379004     0.999132
    6 C      7.240203    -7.852762   -14.380278     2.170174     2.410515     0.997352
    7 H      9.209649    -7.346322   -17.135948    -0.743096     2.344958     0.998387
    8 H      9.183162    -9.821260   -17.098675    -1.082432     2.299987     0.998260
    9 H      6.710986    -9.820921   -13.637008    -1.172318     2.280579     0.998528
   10 H      6.684166    -7.346113   -13.599941    -0.858895     2.324591     0.997533
   11 C      7.946105   -11.364721   -15.368252     0.748449     2.227641     0.999625
   12 N      7.945653   -12.538089   -15.367218    -0.358388     1.990027     0.999223
   13 C      7.946883   -25.068416   -15.368279     2.122972     2.407153     0.997640
   14 C      6.952208   -24.325941   -16.069480     2.188668     2.414056     0.997204
   15 C      6.964763   -22.930613   -16.072789     1.936515     2.383151     0.999056
   16 C      7.946461   -22.224111   -15.367679     2.461599     2.492727     0.997572
   17 C      8.934127   -22.932563   -14.667217     2.030785     2.401663     0.998918
   18 C      8.936323   -24.323449   -14.664871     2.181453     2.412908     0.997271
   19 H      6.175034   -24.831045   -16.628470    -0.697770     2.353216     0.998472
   20 H      6.213546   -22.356818   -16.601512    -1.102203     2.299634     0.998609
   21 H      9.678755   -22.357007   -14.136922    -1.017649     2.318879     0.998199
   22 H      9.716938   -24.831010   -14.109786    -0.713120     2.349542     0.998379
   23 C      7.946058   -20.798213   -15.368843     0.660157     2.216668     0.999578
   24 N      7.944787   -19.653823   -15.368192    -0.444962     1.981332     0.999342
   25 C      7.947483    -1.841483   -15.368012     2.877243     2.576129     0.997674
   26 C      7.947263    -5.684047   -15.368219     2.689604     2.531503     0.996944
   27 C      7.947584    -0.492194   -15.367953     3.064406     2.620167     0.997228
   28 C      7.947433    -3.090048   -15.368056     3.644963     2.729151     0.995304
   29 C      7.947248    -4.439750   -15.368029     3.099599     2.628196     0.997248
   30 C      7.946357   -26.493255   -15.368927     2.694473     2.534162     0.997063
   31 C      8.092548   -16.078271    -8.510862     2.242880     2.428326     0.997412
   32 C      8.835531   -15.145980    -9.243885     1.822252     2.344362     0.998603
   33 C      8.781214   -15.143025   -10.617347     0.838807     2.156168     0.999233
   34 C      8.030781   -16.092639   -11.317497     1.283072     2.253766     0.999309
   35 C      7.276676   -17.011465   -10.608927     0.798534     2.153181     0.999438
   36 C      7.276139   -17.012512    -9.224563     1.752155     2.334970     0.998954
   37 H      9.468230   -14.398735    -8.751896    -0.695586     2.347563     0.998643
   38 H      9.360327   -14.445908   -11.238757    -1.632949     2.139422     0.999837
   39 H      6.696131   -17.714179   -11.191901    -1.665110     2.129130     0.999845
   40 H      6.671451   -17.748067    -8.695849    -0.815916     2.334109     0.998254
   41 C      7.822742   -16.099496   -22.243439     2.427214     2.466734     0.997034
   42 C      7.101676   -15.121413   -21.505360     1.846215     2.348123     0.998601
   43 C      7.140189   -15.128607   -20.114556     0.836189     2.160703     0.998798
   44 C      7.862709   -16.093406   -19.419543     1.148451     2.226084     0.999513
   45 C      8.570608   -17.066761   -20.121291     0.806185     2.165427     0.999829
   46 C      8.577335   -17.060586   -21.520359     1.675912     2.319294     0.999129
   47 H      6.517821   -14.359518   -22.004134    -0.550306     2.371532     0.998357
   48 H      6.616764   -14.386485   -19.512097    -1.669132     2.137788     0.999402
   49 H      9.121787   -17.779383   -19.530691    -1.628859     2.118643     0.999924
   50 H      9.138983   -17.835036   -22.019842    -0.624036     2.350192     0.998612
   51 C      7.800106   -16.109149   -23.657057     2.804630     2.554072     0.996659
   52 C      8.097094   -16.069137    -7.062379     2.849201     2.565685     0.995810
   53 C      8.167994   -16.054519    -3.252821     2.948020     2.584134     0.997758
   54 C      8.192267   -16.048471    -1.910002     2.928307     2.579830     0.997339
   55 C      8.145408   -16.058331    -4.495921     2.898129     2.576712     0.997515
   56 C      8.117508   -16.065391    -5.835831     3.185773     2.647914     0.997046
   57 C      1.001599   -16.249422   -14.664139     2.451280     2.481583     0.997132
   58 C      1.809307   -14.913903   -15.067533     1.916025     2.344449     0.998291
   59 C      3.174583   -14.919576   -15.192331     0.828213     2.154792     0.998815
   60 C      3.904771   -16.095185   -15.001004     1.101640     2.222712     0.999447
   61 C      3.251082   -17.196925   -14.658967     0.727891     2.124355     0.999291
   62 C      1.929922   -17.197375   -14.539497     1.999965     2.410386     0.998734
   63 H      1.288755   -13.962548   -15.246353    -0.469229     2.375767     0.998524
   64 H      3.767472   -14.029472   -15.451661    -1.579859     2.140527     0.999029
   65 H      3.830158   -18.127349   -14.491201    -1.793262     2.104235     0.999572
   66 H      1.383146   -18.185392   -14.225989    -0.401187     2.373645     0.998922
   67 C     14.802956   -16.094465   -16.016500     2.371887     2.459247     0.997338
   68 C     13.951441   -16.100529   -17.154052     1.650126     2.322624     0.999379
   69 C     12.560582   -16.095977   -17.010125     0.742006     2.124986     0.999868
   70 C     11.988015   -16.088625   -15.741334     1.353901     2.261448     0.998769
   71 C     12.797802   -16.089918   -14.610157     0.983206     2.175995     0.999619
   72 C     14.182642   -16.088931   -14.734277     1.806370     2.338874     0.999081
   73 H     14.358907   -16.105884   -18.151796    -0.753583     2.335820     0.998554
   74 H     11.878007   -16.097078   -17.849140    -1.395373     2.148637     0.999255
   75 H     12.290356   -16.080522   -13.656697    -1.428605     2.175443     0.999405
   76 H     14.771606   -16.084968   -13.831520    -0.553147     2.377865     0.998341
   77 C     16.202816   -16.100623   -16.145993     2.671466     2.508749     0.996419
   78 C     -0.275347   -16.021773   -14.621480     2.680628     2.566827     0.997343
   79 C     18.752776   -16.107803   -16.385941     3.025676     2.603762     0.997658
   80 C     17.451607   -16.101769   -16.252659     3.078677     2.616300     0.997068
   81 C     19.989429   -16.113787   -16.493937     2.924533     2.605869     0.998236
   82 C     21.348677   -16.103623   -16.609154     2.140339     2.374382     0.998371
   83 Zn     7.933861   -14.527262   -15.373234    -0.084606     1.860624     0.999381
   84 Zn     7.941369   -17.652528   -15.370714    -0.105951     1.863532     0.999425
   85 C     10.508050   -16.096593   -15.566962    -0.093643     2.007835     0.999801
   86 C      5.385852   -16.107606   -15.181009    -0.305947     1.979194     0.999517
   87 C      7.844460   -16.093024   -17.931865    -0.300224     1.980110     0.999655
   88 C      8.047388   -16.085900   -12.792860    -0.223267     1.989558     0.999661
   89 O      5.949690   -17.246134   -15.234763    -0.671114     1.897896     0.999917
   90 O      9.950731   -17.233361   -15.490816    -0.738643     1.876129     0.999957
   91 O      7.893406   -17.243039   -17.372152    -0.634981     1.879671     0.999951
   92 O      8.003631   -17.259327   -13.365443    -0.659666     1.880541     0.999958
   93 O      7.788136   -14.942201   -17.368237    -0.671122     1.884499     0.999975
   94 O      9.948698   -14.934241   -15.501782    -0.688050     1.877800     0.999954
   95 O      5.952867   -14.934394   -15.270784    -0.666351     1.882267     0.999964
   96 O      8.113078   -14.952131   -13.373971    -0.650667     1.890836     0.999978
 
 2025/04/09  12:00:10
