   98
jmolscript: load "" {1 1 1} spacegroup "x,y,z" unitcell [{      0.000000   -27.260452     0.002572 }, {     -0.549445     0.023972   -20.150699 }, {     20.084975    -0.158277    -1.820740 }]
C      5.100234    -7.242435   -15.069492    -0.066491
C      4.248851    -7.958399   -14.182129     0.219028
C      4.247430    -9.353915   -14.185559    -0.173746
C      5.098495   -10.086551   -15.072891     0.301983
C      5.962982    -9.352324   -15.947206    -0.164646
C      5.968892    -7.959426   -15.958227     0.222885
H      3.573484    -7.410017   -13.492060     0.097187
H      3.614096    -9.903023   -13.533376     0.139187
H      6.597136    -9.905515   -16.605411     0.139723
H      6.635079    -7.411900   -16.641674     0.100283
C      5.102511   -11.533909   -15.060152     0.380251
N      5.094319   -12.551160   -15.047524    -0.264055
C      5.092384   -25.184081   -15.088640     0.033916
C      6.025691   -24.472623   -14.183581     0.069290
C      6.016884   -23.047519   -14.168014    -0.081196
C      5.087310   -22.304845   -15.072798     0.170366
C      4.174550   -23.066392   -15.963333    -0.094658
C      4.176486   -24.440886   -15.959032     0.056478
H      6.751314   -25.050114   -13.479639     0.119636
H      6.703697   -22.466560   -13.519778     0.137496
H      3.524633   -22.479161   -16.599997     0.138199
H      3.487153   -25.036445   -16.634394     0.121559
C      5.107989   -21.136447   -15.062639     0.026575
N      5.072885   -19.482088   -15.052247     0.668664
C      5.104141    -0.832760   -15.071216    -0.023332
C      5.105990    -4.478728   -15.067923    -0.144264
C      5.105116    -1.822525   -15.068824     0.102826
C      5.105570   -26.334074   -15.061406     0.683764
C      5.104728    -6.012381   -15.066745     1.124728
C      5.105015    -3.390974   -15.068720     0.290754
C      3.227810   -15.988277    -9.067852     0.140603
C      2.656615   -15.921718   -10.341836    -0.122616
C      3.457685   -16.012796   -11.422053    -0.126374
C      4.862940   -16.171792   -11.214761     0.064196
C      5.423901   -16.243735    -9.938850    -0.128060
C      4.570831   -16.137950    -8.796202    -0.138423
H      1.600029   -15.804737   -10.438508     0.100216
H      3.081909   -15.948693   -12.333462     0.116052
H      6.485833   -16.362738    -9.807112     0.133500
H      5.002691   -16.185578    -7.775782     0.131150
C      3.981938   -16.053091    -1.277604     0.011705
C      2.712455   -15.940144   -20.219801    -0.089331
C      3.350420   -16.002977   -19.004555    -0.118841
C      4.758789   -16.169102   -18.991260     0.084103
C      5.525333   -16.280208   -20.200843    -0.103598
C      5.412055   -16.211210    -1.260903    -0.134771
H      1.649991   -15.821220   -20.255954     0.108462
H      2.846206   -15.939739   -18.103936     0.142942
H      6.590243   -16.398519   -20.123441     0.144843
H      5.940304   -16.285691    -2.221616     0.125543
C      2.983064   -15.943700    -4.688492     0.168513
N      3.729656   -16.034988    -3.690150    -0.273561
C      2.037385   -15.834319    -5.473014    -0.392419
C      1.969450   -15.832559    -8.134282    -0.602581
S      1.118998   -15.727370    -6.917546     0.308808
C      3.237747   -15.964195    -2.328145     0.133068
H      2.145357   -15.840347    -2.250412     0.095724
C     19.272321   -18.256128   -15.049162     0.065590
C      0.411870   -18.362950   -13.155398    -0.044510
C      1.492874   -17.641624   -13.751339    -0.094915
C      1.255468   -16.486791   -14.506252     0.101831
C     -0.067160   -16.018840   -14.658004    -0.109414
C     18.944986   -16.974080   -15.873897     0.054583
H      0.727958   -19.100799   -12.684841     0.105507
H      2.463042   -17.994331   -13.685556     0.100821
H     -0.237814   -15.158653   -15.241539     0.171781
H     18.045830   -16.592837   -16.058610     0.103066
C     11.574222   -17.493426   -14.839546     0.239709
C     10.444616   -18.112030   -14.303101     0.282717
C      9.144046   -17.599130   -14.466395     0.237480
C      9.068009   -16.387412   -15.245048    -0.114452
C     10.231325   -15.777355   -15.806360     0.602947
C     11.413736   -16.310877   -15.601497    -2.703694
H     10.530786   -19.007075   -13.730560    -1.914438
H      8.395187   -18.030908   -14.137661    -1.740730
H     10.047183   -14.903044   -16.384734    -1.691928
H     12.349692   -15.882307   -15.991910    -0.778828
C     15.110858   -18.516400   -14.498429     0.292844
N     14.037440   -17.802148   -14.870766     0.134871
C     15.935134   -18.884188   -14.330126    -0.113373
C     18.329004   -18.792208   -14.600409     0.447496
S     17.445678   -19.649560   -13.978708     0.703934
C     12.765689   -18.139368   -14.527049    -0.150058
H     12.677291   -19.014022   -13.940552     0.047194
Zn     5.224481   -14.614542   -15.163871     1.082335
Zn     5.241011   -17.727346   -15.124693     1.066600
C      7.726697   -15.875922   -15.404015     0.488093
C      2.594939   -15.865301   -15.093753     0.548373
C      5.269752   -16.251730   -17.645089     0.564732
C      5.566709   -16.263121   -12.589493     0.556252
O      3.397584   -16.785436   -15.319796    -0.415319
O      6.945216   -16.846910   -15.411883     0.131683
O      5.385039   -17.485014   -17.260588    -0.451003
O      5.699196   -17.411004   -13.001653    -0.649043
O      5.358867   -15.204024   -17.023769    -0.386030
O      7.441266   -14.719223   -15.427028     0.090119
O      2.780746   -14.701551   -15.217840    -0.537201
O      5.741604   -15.193863   -13.122087    -0.436868
 
 Chargemol version 3.5 September 26, 2017.
See ddec.sourceforge.net for latest version.
 
Computational parameters:
Number of radial integration shells =    100
Cutoff radius (pm) =    500
Error in the integrated total number of electrons before renormalization (e) =    1.1774E-01
Charge convergence tolerance =    1.0000E-05
Minimum radius for electron cloud penetration fitting (pm) =    200
Minimum decay exponent for electron density of buried atom tails =   1.7500
Maximum decay exponent for electron density of buried atom tails =  2.5000
Number of iterations to convergence =      7
 
The following XYZ coordinates are in angstroms. The atomic dipoles and quadrupoles are in atomic units.
atom number, atomic symbol, x, y, z, net_charge, dipole_x, dipole_y, dipole_z, dipole_mag, Qxy, Qxz, Qyz,Q(x^2-y^2), Q(3z^2 - R^2), three eigenvalues of traceless quadrupole moment tensor
    1 C      5.100234    -7.242435   -15.069492    -0.066491     0.000515    -0.131808    -0.001804     0.131821    -0.001461    -0.033865    -0.005614    -0.021657    -0.053763    -0.045133     0.019263     0.025869
    2 C      4.248851    -7.958399   -14.182129     0.219028     0.042759     0.003922    -0.042291     0.060268    -0.004236     0.000331    -0.002164     0.048350     0.050947    -0.033125     0.015836     0.017289
    3 C      4.247430    -9.353915   -14.185559    -0.173746     0.011631     0.007634    -0.010982     0.017725     0.022829    -0.026123    -0.020975     0.008414     0.006854    -0.024488    -0.022618     0.047107
    4 C      5.098495   -10.086551   -15.072891     0.301983    -0.001427    -0.003468    -0.001208     0.003940     0.000577     0.019290     0.002712    -0.039028    -0.046986    -0.033109     0.005490     0.027619
    5 C      5.962982    -9.352324   -15.947206    -0.164646    -0.007251     0.009700     0.013216     0.017925    -0.018093    -0.029821     0.020549     0.008163     0.009380    -0.027279    -0.019599     0.046878
    6 C      5.968892    -7.959426   -15.958227     0.222885    -0.036005     0.002381     0.042333     0.055624    -0.002352    -0.004896     0.001964     0.049181     0.062217    -0.035126     0.011627     0.023500
    7 H      3.573484    -7.410017   -13.492060     0.097187    -0.042567     0.031281     0.043114     0.068186    -0.007769    -0.026440     0.007421    -0.011323    -0.007596    -0.029926     0.001557     0.028369
    8 H      3.614096    -9.903023   -13.533376     0.139187    -0.031146    -0.027975     0.031822     0.052587     0.007664    -0.022613    -0.007418    -0.010876    -0.007849    -0.026003     0.000644     0.025359
    9 H      6.597136    -9.905515   -16.605411     0.139723     0.032673    -0.027708    -0.033752     0.054538    -0.005818    -0.022433     0.007775    -0.011141    -0.006154    -0.025807     0.001405     0.024402
   10 H      6.635079    -7.411900   -16.641674     0.100283     0.042609     0.030709    -0.043407     0.068137     0.007569    -0.026148    -0.007968    -0.010216    -0.006998    -0.029298     0.000833     0.028465
   11 C      5.102511   -11.533909   -15.060152     0.380251     0.001986     0.057580    -0.003816     0.057740    -0.000864    -0.020883     0.004832     0.173986     0.182626    -0.117562     0.037764     0.079798
   12 N      5.094319   -12.551160   -15.047524    -0.264055     0.005896    -0.039399    -0.009355     0.040922    -0.014055     0.010884     0.012443     0.256520     0.287620    -0.177585     0.076030     0.101555
   13 C      5.092384   -25.184081   -15.088640     0.033916    -0.001961     0.158982    -0.019190     0.160148     0.002465     0.046977     0.001933     0.002129    -0.030464    -0.049685     0.003779     0.045906
   14 C      6.025691   -24.472623   -14.183581     0.069290    -0.045305    -0.033671    -0.052951     0.077395    -0.001695     0.045802     0.012589     0.021392     0.010881    -0.043161    -0.009824     0.052985
   15 C      6.016884   -23.047519   -14.168014    -0.081196    -0.059605     0.039273    -0.027164     0.076374    -0.020047     0.030835     0.003000     0.021754    -0.031789    -0.037217    -0.004312     0.041529
   16 C      5.087310   -22.304845   -15.072798     0.170366    -0.015453    -0.093778     0.011414     0.095725    -0.001610    -0.020072    -0.007233     0.042759     0.110662    -0.040810    -0.005792     0.046602
   17 C      4.174550   -23.066392   -15.963333    -0.094658     0.041319     0.052962     0.035679     0.076061    -0.009306     0.009291    -0.005605     0.039765     0.049534    -0.030476     0.004867     0.025609
   18 C      4.176486   -24.440886   -15.959032     0.056478     0.063652    -0.052270     0.057870     0.100661    -0.000960     0.054717    -0.005553     0.006770     0.001671    -0.053122    -0.003787     0.056909
   19 H      6.751314   -25.050114   -13.479639     0.119636     0.050174    -0.032133     0.047803     0.076388    -0.006415     0.031073    -0.006169    -0.008178    -0.012320    -0.034161     0.002979     0.031182
   20 H      6.703697   -22.466560   -13.519778     0.137496     0.032688     0.026856     0.037521     0.056547    -0.029442     0.015923    -0.003742     0.013999     0.079036    -0.044154     0.006528     0.037625
   21 H      3.524633   -22.479161   -16.599997     0.138199    -0.034931     0.037114    -0.035614     0.062177    -0.009390     0.023123    -0.009908     0.002342     0.000778    -0.022490    -0.007278     0.029768
   22 H      3.487153   -25.036445   -16.634394     0.121559    -0.041240    -0.036698    -0.040911     0.068711     0.006959     0.030348     0.006546    -0.013393    -0.016435    -0.035076     0.005013     0.030063
   23 C      5.107989   -21.136447   -15.062639     0.026575    -0.008710     0.055215    -0.002665     0.055961    -0.022343    -0.087703    -0.024723     0.130501     0.285779    -0.125241    -0.027389     0.152630
   24 N      5.072885   -19.482088   -15.052247     0.668664    -0.025416    -0.085444     0.009282     0.089626    -0.022154    -0.441546     0.002575     0.064825     0.449818    -0.399063    -0.106956     0.506018
   25 C      5.104141    -0.832760   -15.071216    -0.023332     0.002981     0.205879    -0.001399     0.205905     0.000456     0.024179    -0.001036     0.085150     0.077925    -0.055583     0.003554     0.052029
   26 C      5.105990    -4.478728   -15.067923    -0.144264    -0.000369    -0.153363    -0.001081     0.153367     0.002256    -0.015426     0.000369     0.114489     0.124336    -0.078016     0.023400     0.054616
   27 C      5.105116    -1.822525   -15.068824     0.102826     0.000753    -0.198307    -0.000573     0.198309    -0.000735     0.018015    -0.000223     0.091973     0.086918    -0.060479     0.012179     0.048300
   28 C      5.105570   -26.334074   -15.061406     0.683764     0.016059    -0.118504     0.009578     0.119970     0.002993     0.277732     0.001271     0.226395     0.163067    -0.208014    -0.140376     0.348390
   29 C      5.104728    -6.012381   -15.066745     1.124728    -0.000603     0.084384    -0.004856     0.084526    -0.001801    -0.149680     0.001704     0.229629     0.244098    -0.155513    -0.071975     0.227489
   30 C      5.105015    -3.390974   -15.068720     0.290754     0.000541     0.160056    -0.000522     0.160058     0.000546    -0.027004     0.000089     0.081591     0.085999    -0.055134     0.000542     0.054592
   31 C      3.227810   -15.988277    -9.067852     0.140603    -0.017096     0.001497     0.018937     0.025556    -0.000885    -0.064657     0.006177     0.008146     0.103647    -0.058464    -0.021441     0.079905
   32 C      2.656615   -15.921718   -10.341836    -0.122616     0.020985     0.003774    -0.011539     0.024244    -0.004265     0.021917    -0.008643    -0.029959    -0.092058    -0.042476     0.008962     0.033514
   33 C      3.457685   -16.012796   -11.422053    -0.126374     0.015983    -0.005043     0.009179     0.019109    -0.024487     0.010424     0.003142    -0.028323    -0.009421    -0.030794     0.000739     0.030055
   34 C      4.862940   -16.171792   -11.214761     0.064196    -0.020168    -0.025821     0.015602     0.036289    -0.000252    -0.003760     0.011012    -0.079335    -0.149908    -0.051395    -0.014311     0.065705
   35 C      5.423901   -16.243735    -9.938850    -0.128060    -0.011934    -0.004244     0.004628     0.013485    -0.003572    -0.000653     0.017413     0.045059    -0.012252    -0.031660     0.006627     0.025033
   36 C      4.570831   -16.137950    -8.796202    -0.138423     0.007812     0.009593    -0.016403     0.020545     0.003916     0.013365     0.003164     0.019092     0.082817    -0.024127    -0.008674     0.032801
   37 H      1.600029   -15.804737   -10.438508     0.100216    -0.048964     0.007987    -0.015148     0.051872    -0.006392     0.013929    -0.005070     0.036861    -0.032601    -0.017784    -0.012360     0.030144
   38 H      3.081909   -15.948693   -12.333462     0.116052    -0.016206     0.004997    -0.036615     0.040352    -0.011054     0.001200     0.000149     0.016171     0.031651    -0.018986     0.008024     0.010961
   39 H      6.485833   -16.362738    -9.807112     0.133500     0.044823    -0.004867     0.010864     0.046377    -0.001744     0.007287    -0.000906     0.041375     0.024487    -0.024853     0.003963     0.020891
   40 H      5.002691   -16.185578    -7.775782     0.131150     0.025949    -0.000835     0.049125     0.055563    -0.003312     0.011923    -0.001676     0.036594     0.050465    -0.027014     0.001033     0.025982
   41 C      3.981938   -16.053091    -1.277604     0.011705     0.047282    -0.009865     0.041798     0.063875    -0.004684    -0.006903    -0.010563     0.004765     0.093492    -0.023735    -0.010330     0.034065
   42 C      2.712455   -15.940144   -20.219801    -0.089331     0.025870    -0.004828     0.004706     0.026734    -0.009984    -0.023170     0.003499     0.041067    -0.073315    -0.032647    -0.010490     0.043137
   43 C      3.350420   -16.002977   -19.004555    -0.118841     0.011081    -0.006293    -0.004443     0.013496    -0.006757    -0.018550     0.001272     0.012207     0.003479    -0.016709    -0.006487     0.023196
   44 C      4.758789   -16.169102   -18.991260     0.084103    -0.014987    -0.010533    -0.042266     0.046065     0.006798     0.000196     0.007327    -0.063083    -0.110517    -0.037459    -0.013832     0.051291
   45 C      5.525333   -16.280208   -20.200843    -0.103598    -0.017611    -0.023679     0.014079     0.032696     0.008922    -0.002512     0.010705     0.056269    -0.002408    -0.032864     0.002923     0.029941
   46 C      5.412055   -16.211210    -1.260903    -0.134771    -0.019704    -0.014613     0.013945     0.028218    -0.016579    -0.031267    -0.035846     0.089357     0.045583    -0.074873     0.015027     0.059847
   47 H      1.649991   -15.821220   -20.255954     0.108462    -0.053378     0.006378     0.007996     0.054349    -0.005621    -0.006740     0.000967     0.047003     0.002448    -0.024574    -0.001051     0.025624
   48 H      2.846206   -15.939739   -18.103936     0.142942    -0.023612     0.003111     0.045575     0.051423    -0.004119    -0.008792     0.001052     0.031371     0.024551    -0.020309     0.001084     0.019226
   49 H      6.590243   -16.398519   -20.123441     0.144843     0.053504    -0.005314     0.008243     0.054395    -0.005807     0.001424     0.000484     0.043628     0.015832    -0.025227     0.005169     0.020058
   50 H      5.940304   -16.285691    -2.221616     0.125543     0.033584    -0.003410    -0.049225     0.059688    -0.007751    -0.023091     0.001025     0.036243     0.014192    -0.022967    -0.011838     0.034805
   51 C      2.983064   -15.943700    -4.688492     0.168513     0.091739    -0.007954     0.024693     0.095336     0.007754    -0.116792     0.014241    -0.076682    -0.067420    -0.142854     0.050292     0.092562
   52 N      3.729656   -16.034988    -3.690150    -0.273561    -0.232348     0.030407     0.051061     0.239828     0.022552     0.002200     0.000439    -0.149981     0.465599    -0.155922     0.000704     0.155218
   53 C      2.037385   -15.834319    -5.473014    -0.392419    -0.052363     0.008960    -0.110924     0.122989     0.002388    -0.033569     0.006012    -0.030618    -0.064279    -0.048139     0.021006     0.027134
   54 C      1.969450   -15.832559    -8.134282    -0.602581     0.205514    -0.018631     0.059381     0.214731     0.057036    -0.071328     0.005657    -0.510638    -0.309269    -0.245888    -0.067281     0.313169
   55 S      1.118998   -15.727370    -6.917546     0.308808     0.174257    -0.016170     0.120751     0.212621     0.026386     0.050507    -0.005966    -0.226243     0.472602    -0.202117     0.037391     0.164726
   56 C      3.237747   -15.964195    -2.328145     0.133068     0.026748    -0.003095    -0.110131     0.113375     0.010941     0.002779     0.001050    -0.037346     0.033461    -0.027369     0.010737     0.016632
   57 H      2.145357   -15.840347    -2.250412     0.095724    -0.065364     0.006971    -0.002972     0.065802    -0.005194     0.000286     0.000236     0.038599     0.005876    -0.020969     0.001958     0.019011
   58 C     19.272321   -18.256128   -15.049162     0.065590     0.033371     0.047727    -0.038976     0.070076    -0.009771    -0.002533    -0.044106    -0.047176    -0.095264    -0.053759    -0.007651     0.061410
   59 C      0.411870   -18.362950   -13.155398    -0.044510    -0.011184     0.015144    -0.023827     0.030367    -0.013842     0.016075    -0.007706    -0.049335     0.019471    -0.036109     0.004954     0.031155
   60 C      1.492874   -17.641624   -13.751339    -0.094915     0.000186     0.014930    -0.025128     0.029229     0.019173    -0.027237    -0.002842     0.041022     0.001359    -0.031050    -0.013029     0.044079
   61 C      1.255468   -16.486791   -14.506252     0.101831    -0.003335    -0.010535    -0.001854     0.011204    -0.028107     0.013846     0.038893    -0.020782     0.001599    -0.053942     0.006471     0.047471
   62 C     -0.067160   -16.018840   -14.658004    -0.109414     0.028329    -0.011531    -0.007284     0.031441     0.001529     0.006961    -0.030504    -0.013412    -0.074719    -0.041509     0.006639     0.034870
   63 C     18.944986   -16.974080   -15.873897     0.054583     0.035726    -0.045592     0.042675     0.071945    -0.036472     0.022380    -0.036587     0.013035    -0.002622    -0.044567    -0.019227     0.063793
   64 H      0.727958   -19.100799   -12.684841     0.105507     0.022443    -0.031799     0.017926     0.042851    -0.007863     0.005741    -0.011503     0.003107    -0.031053    -0.016888    -0.001352     0.018241
   65 H      2.463042   -17.994331   -13.685556     0.100821     0.050536    -0.012050    -0.005504     0.052243    -0.013374     0.004350    -0.009246     0.021393    -0.037817    -0.019104    -0.006041     0.025145
   66 H     -0.237814   -15.158653   -15.241539     0.171781    -0.002897     0.042860    -0.029632     0.052186    -0.003708     0.001081    -0.019455    -0.005733    -0.025406    -0.021700     0.000738     0.020962
   67 H     18.045830   -16.592837   -16.058610     0.103066    -0.046742     0.035686    -0.020084     0.062142    -0.016826     0.005449    -0.013263     0.000427    -0.036716    -0.019781    -0.007648     0.027430
   68 C     11.574222   -17.493426   -14.839546     0.239709    -0.022306     0.132385    -0.033982     0.138485    -0.022979     0.060743    -0.034413    -0.251890     0.154771    -0.169147     0.042120     0.127027
   69 C     10.444616   -18.112030   -14.303101     0.282717     0.001195    -0.109819     0.043983     0.118305     0.028818     0.078853     0.245027     0.021727     0.004766    -0.254814    -0.008640     0.263454
   70 C      9.144046   -17.599130   -14.466395     0.237480    -0.112663    -0.051382     0.024721     0.126270    -0.180621     0.174543     0.260812    -0.054816     0.327745    -0.415850     0.102492     0.313358
   71 C      9.068009   -16.387412   -15.245048    -0.114452    -0.096273    -0.008547    -0.061030     0.114307     0.033234    -0.032917    -0.047022    -0.013501     0.080163    -0.047952    -0.033082     0.081034
   72 C     10.231325   -15.777355   -15.806360     0.602947     0.012258    -0.003103     0.020015     0.023674    -0.162522     0.236065     0.235319    -0.032712    -0.156777    -0.430546     0.186925     0.243621
   73 C     11.413736   -16.310877   -15.601497    -2.703694    -0.047840    -0.005312     0.158786     0.165922     0.057930     0.762128     0.788999    -0.031383     0.900861    -1.010195    -0.208499     1.218694
   74 H     10.530786   -19.007075   -13.730560    -1.914438     0.258854     0.844118    -0.801994     1.192785    -0.447303     0.668600     1.469789     0.902577    -0.641331    -1.993018     0.739153     1.253865
   75 H      8.395187   -18.030908   -14.137661    -1.740730     0.517156     0.566559    -0.512802     0.922716    -0.649137     0.556826     0.875634     0.213893     0.286034    -1.411460     0.556530     0.854930
   76 H     10.047183   -14.903044   -16.384734    -1.691928    -0.461572    -0.561449     0.706297     1.013474    -0.506026     0.813743     1.037327     0.194201    -1.047637    -1.663170     0.688141     0.975029
   77 H     12.349692   -15.882307   -15.991910    -0.778828    -0.171535    -0.211212     0.483152     0.554500     0.058088     0.278618     0.572488     0.425166     0.353455    -0.698119     0.034704     0.663416
   78 C     15.110858   -18.516400   -14.498429     0.292844    -0.281872    -0.080499     0.145549     0.327286     0.082200     0.005473     0.103633    -0.082402     0.197936    -0.140019    -0.018224     0.158243
   79 N     14.037440   -17.802148   -14.870766     0.134871     0.154061    -0.308845     0.268099     0.437032     0.052653     0.053220     0.279445     0.313751    -0.544601    -0.409263     0.118620     0.290643
   80 C     15.935134   -18.884188   -14.330126    -0.113373     0.106923    -0.211766     0.252758     0.346647    -0.007652     0.034016     0.073446     0.074727    -0.026573    -0.100871     0.029613     0.071258
   81 C     18.329004   -18.792208   -14.600409     0.447496    -0.010343     0.067916    -0.043161     0.081132    -0.185158     0.094084    -0.042430    -0.044522    -0.142220    -0.179155    -0.062227     0.241382
   82 S     17.445678   -19.649560   -13.978708     0.703934    -0.268915    -0.013464     0.088979     0.283573     0.054365    -0.165793    -0.091632     0.477712    -0.595359    -0.284935    -0.111577     0.396511
   83 C     12.765689   -18.139368   -14.527049    -0.150058     0.076661    -0.101359     0.021672     0.128919    -0.160162     0.020825     0.147822     0.090716    -0.021549    -0.240184     0.037831     0.202353
   84 H     12.677291   -19.014022   -13.940552     0.047194     0.040997     0.086801    -0.037816     0.103175    -0.069819     0.019528     0.099897     0.273342     0.006179    -0.204565     0.051958     0.152607
   85 Zn     5.224481   -14.614542   -15.163871     1.082335     0.050830    -0.017532    -0.003780     0.053901     0.025800     0.016251    -0.040919     0.060265     0.105938    -0.074904     0.021983     0.052922
   86 Zn     5.241011   -17.727346   -15.124693     1.066600    -0.070025     0.010800    -0.020229     0.073684     0.045903    -0.132058     0.052356     0.017376     0.216749    -0.158999    -0.006043     0.165042
   87 C      7.726697   -15.875922   -15.404015     0.488093    -0.014793    -0.027175    -0.015207     0.034476    -0.016010    -0.028210    -0.024870     0.012690     0.313561    -0.076881    -0.035527     0.112409
   88 C      2.594939   -15.865301   -15.093753     0.548373     0.059370    -0.028267    -0.030449     0.072463     0.006250     0.030182    -0.009152    -0.066499     0.238605    -0.079620    -0.006334     0.085953
   89 C      5.269752   -16.251730   -17.645089     0.564732     0.027771    -0.000496     0.050959     0.058037     0.014267    -0.040008    -0.007834     0.183809    -0.150193    -0.069975    -0.057314     0.127288
   90 C      5.566709   -16.263121   -12.589493     0.556252     0.040475    -0.001246    -0.034288     0.053061     0.044159     0.062568    -0.014557     0.218222    -0.107595    -0.111027    -0.042982     0.154009
   91 O      3.397584   -16.785436   -15.319796    -0.415319    -0.076031    -0.034884    -0.018240     0.085617    -0.050979     0.028607     0.000845    -0.099866    -0.129880    -0.073677    -0.020132     0.093810
   92 O      6.945216   -16.846910   -15.411883     0.131683     0.193701    -0.070722     0.121343     0.239261     0.008718     0.073018    -0.038040     0.090090    -0.049336    -0.088960    -0.011655     0.100615
   93 O      5.385039   -17.485014   -17.260588    -0.451003    -0.012388     0.001190     0.052139     0.053604    -0.000776    -0.018668    -0.049840    -0.101131    -0.098971    -0.063974    -0.024020     0.087994
   94 O      5.699196   -17.411004   -13.001653    -0.649043    -0.223125     0.155224     0.030783     0.273545     0.571325     0.021250     0.019284    -0.023074     0.634461    -0.677188     0.208302     0.468886
   95 O      5.358867   -15.204024   -17.023769    -0.386030     0.044183    -0.030528     0.021697     0.057921     0.011430     0.002202     0.059095     0.031480    -0.080450    -0.075217     0.024509     0.050707
   96 O      7.441266   -14.719223   -15.427028     0.090119     0.042886    -0.077630    -0.015326     0.090003    -0.081354    -0.053924     0.007672     0.190268    -0.108414    -0.109238    -0.048655     0.157893
   97 O      2.780746   -14.701551   -15.217840    -0.537201     0.008206     0.030745    -0.026242     0.041246    -0.016557     0.020065     0.001918    -0.126711     0.087881    -0.083721     0.032861     0.050860
   98 O      5.741604   -15.193863   -13.122087    -0.436868     0.049666    -0.046404    -0.041253     0.079510     0.032197     0.020921    -0.056105     0.025840    -0.007389    -0.078835     0.027912     0.050923
 
The sperically averaged electron density of each atom fit to a function of the form exp(a - br) for r >=rmin_cloud_penetration
atom number,atomic symbol, x, y, z, a, b, Rsquared where a and b are in atomic units and Rsquared is the squared correlation coefficient
    1 C      5.100234    -7.242435   -15.069492     1.466631     2.265887     0.998351
    2 C      4.248851    -7.958399   -14.182129     2.647241     2.564092     0.997664
    3 C      4.247430    -9.353915   -14.185559     1.868866     2.356791     0.998769
    4 C      5.098495   -10.086551   -15.072891     1.518469     2.347150     0.999448
    5 C      5.962982    -9.352324   -15.947206     0.753720     2.143762     0.999003
    6 C      5.968892    -7.959426   -15.958227     2.510564     2.542239     0.998082
    7 H      3.573484    -7.410017   -13.492060    -0.707522     2.319685     0.997517
    8 H      3.614096    -9.903023   -13.533376    -1.224703     2.275084     0.997751
    9 H      6.597136    -9.905515   -16.605411    -3.056882     1.868371     0.998324
   10 H      6.635079    -7.411900   -16.641674    -1.102483     2.254652     0.990962
   11 C      5.102511   -11.533909   -15.060152    -0.030770     2.072459     0.999708
   12 N      5.094319   -12.551160   -15.047524    -0.817873     1.881194     0.999620
   13 C      5.092384   -25.184081   -15.088640     0.946568     2.156680     0.999237
   14 C      6.025691   -24.472623   -14.183581     1.010367     2.257702     0.992786
   15 C      6.016884   -23.047519   -14.168014    -1.017899     1.757360     0.998720
   16 C      5.087310   -22.304845   -15.072798    -0.258418     1.917966     0.999590
   17 C      4.174550   -23.066392   -15.963333     1.551977     2.300260     0.998463
   18 C      4.176486   -24.440886   -15.959032     2.327670     2.501317     0.998729
   19 H      6.751314   -25.050114   -13.479639    -2.163228     2.055727     0.984201
   20 H      6.703697   -22.466560   -13.519778    -2.488111     1.743373     0.997077
   21 H      3.524633   -22.479161   -16.599997    -0.770992     2.315534     0.996604
   22 H      3.487153   -25.036445   -16.634394    -0.662486     2.337400     0.997242
   23 C      5.107989   -21.136447   -15.062639     0.245624     1.973643     0.999324
   24 N      5.072885   -19.482088   -15.052247     1.798890     2.394997     0.997748
   25 C      5.104141    -0.832760   -15.071216     2.315771     2.533909     0.998620
   26 C      5.105990    -4.478728   -15.067923     2.416951     2.511813     0.998286
   27 C      5.105116    -1.822525   -15.068824     2.693323     2.584449     0.997974
   28 C      5.105570   -26.334074   -15.061406     2.201505     2.501752     0.995111
   29 C      5.104728    -6.012381   -15.066745     1.985104     2.487855     0.996878
   30 C      5.105015    -3.390974   -15.068720     2.739019     2.603288     0.998429
   31 C      3.227810   -15.988277    -9.067852     1.807908     2.381259     0.999021
   32 C      2.656615   -15.921718   -10.341836     0.155308     2.015365     0.999530
   33 C      3.457685   -16.012796   -11.422053    -0.215216     1.888139     0.999707
   34 C      4.862940   -16.171792   -11.214761    -0.250293     1.937797     0.999676
   35 C      5.423901   -16.243735    -9.938850    -0.177354     1.962102     0.997494
   36 C      4.570831   -16.137950    -8.796202     0.992343     2.208434     0.998229
   37 H      1.600029   -15.804737   -10.438508    -1.634767     2.091786     0.999842
   38 H      3.081909   -15.948693   -12.333462    -2.650990     1.783891     0.999989
   39 H      6.485833   -16.362738    -9.807112    -3.506180     1.756579     0.999460
   40 H      5.002691   -16.185578    -7.775782    -0.630930     2.336693     0.997787
   41 C      3.981938   -16.053091    -1.277604     1.605772     2.297153     0.998502
   42 C      2.712455   -15.940144   -20.219801     0.846847     2.171576     0.999231
   43 C      3.350420   -16.002977   -19.004555     0.300953     2.018088     0.999777
   44 C      4.758789   -16.169102   -18.991260     0.558388     2.105527     0.997990
   45 C      5.525333   -16.280208   -20.200843     0.055489     2.026520     0.995940
   46 C      5.412055   -16.211210    -1.260903     1.969819     2.355802     0.997803
   47 H      1.649991   -15.821220   -20.255954    -1.624606     2.187539     0.996599
   48 H      2.846206   -15.939739   -18.103936    -1.551290     2.077678     0.999489
   49 H      6.590243   -16.398519   -20.123441    -3.666898     1.766229     0.997933
   50 H      5.940304   -16.285691    -2.221616    -0.207087     2.396986     0.996553
   51 C      2.983064   -15.943700    -4.688492     2.058683     2.471082     0.999570
   52 N      3.729656   -16.034988    -3.690150     1.378155     2.310916     0.998582
   53 C      2.037385   -15.834319    -5.473014     1.730262     2.288141     0.995099
   54 C      1.969450   -15.832559    -8.134282     1.737464     2.222480     0.997300
   55 S      1.118998   -15.727370    -6.917546     3.395414     2.610079     0.997901
   56 C      3.237747   -15.964195    -2.328145     2.849528     2.582938     0.994458
   57 H      2.145357   -15.840347    -2.250412    -0.003609     2.419342     0.998383
   58 C     19.272321   -18.256128   -15.049162     1.402010     2.269525     0.998144
   59 C      0.411870   -18.362950   -13.155398    -0.163054     1.953540     0.999733
   60 C      1.492874   -17.641624   -13.751339    -0.295067     1.896968     0.999948
   61 C      1.255468   -16.486791   -14.506252     0.534540     2.105163     0.999859
   62 C     -0.067160   -16.018840   -14.658004     0.329956     2.084044     0.996442
   63 C     18.944986   -16.974080   -15.873897     0.057668     2.015083     0.998236
   64 H      0.727958   -19.100799   -12.684841    -2.275365     2.013893     0.999788
   65 H      2.463042   -17.994331   -13.685556    -2.239582     1.884474     0.999212
   66 H     -0.237814   -15.158653   -15.241539    -1.813282     2.146663     0.994368
   67 H     18.045830   -16.592837   -16.058610    -1.937505     1.935650     0.998304
   68 C     11.574222   -17.493426   -14.839546    -1.915979     1.579036     0.998909
   69 C     10.444616   -18.112030   -14.303101    -1.122968     1.622486     0.994175
   70 C      9.144046   -17.599130   -14.466395    -0.803121     1.666890     0.999215
   71 C      9.068009   -16.387412   -15.245048    -1.784719     1.626213     0.997404
   72 C     10.231325   -15.777355   -15.806360    -1.375236     1.602767     0.996474
   73 C     11.413736   -16.310877   -15.601497    -0.174582     1.615511     0.998019
   74 H     10.530786   -19.007075   -13.730560     1.129087     1.902727     0.989571
   75 H      8.395187   -18.030908   -14.137661    -0.068891     1.772886     0.999606
   76 H     10.047183   -14.903044   -16.384734     0.567417     1.813894     0.992297
   77 H     12.349692   -15.882307   -15.991910    -0.056881     1.784428     0.997012
   78 C     15.110858   -18.516400   -14.498429    -0.559115     1.786947     0.999702
   79 N     14.037440   -17.802148   -14.870766     2.323144     2.428377     0.998765
   80 C     15.935134   -18.884188   -14.330126    -0.901405     1.793811     0.999464
   81 C     18.329004   -18.792208   -14.600409     1.711094     2.367963     0.998214
   82 S     17.445678   -19.649560   -13.978708     1.841115     2.338195     0.992000
   83 C     12.765689   -18.139368   -14.527049    -0.825581     1.649363     0.999972
   84 H     12.677291   -19.014022   -13.940552    -1.821460     1.690324     0.998853
   85 Zn     5.224481   -14.614542   -15.163871    -0.109976     1.837049     0.999554
   86 Zn     5.241011   -17.727346   -15.124693    -0.336902     1.754136     0.999861
   87 C      7.726697   -15.875922   -15.404015    -1.205429     1.698236     0.999386
   88 C      2.594939   -15.865301   -15.093753    -0.586652     1.917552     0.999848
   89 C      5.269752   -16.251730   -17.645089    -0.533174     1.907883     0.998604
   90 C      5.566709   -16.263121   -12.589493    -1.155616     1.733039     0.999914
   91 O      3.397584   -16.785436   -15.319796    -1.018255     1.793352     0.999852
   92 O      6.945216   -16.846910   -15.411883     1.319783     2.375363     0.995290
   93 O      5.385039   -17.485014   -17.260588    -0.890826     1.859801     0.998746
   94 O      5.699196   -17.411004   -13.001653    -0.259822     1.753835     0.999912
   95 O      5.358867   -15.204024   -17.023769    -1.151815     1.796505     0.999384
   96 O      7.441266   -14.719223   -15.427028     0.299069     2.235964     0.999666
   97 O      2.780746   -14.701551   -15.217840    -0.984692     1.872762     0.999281
   98 O      5.741604   -15.193863   -13.122087    -1.351855     1.760550     0.999371
 
 2025/04/09  11:19:12
