  100
jmolscript: load "" {1 1 1} spacegroup "x,y,z" unitcell [{     -0.001286   -27.258952    -0.000429 }, {     -0.239844    -0.109349   -22.310092 }, {     22.190074     0.058104    -2.314240 }]
C      7.236985    -7.088521   -15.545593     0.128561
C      6.247831    -7.834492   -14.842334    -0.124463
C      6.244052    -9.228667   -14.840519    -0.105550
C      7.237896    -9.936520   -15.545938     0.046168
C      8.229088    -9.227846   -16.250394    -0.100881
C      8.226379    -7.834997   -16.248633    -0.123125
H      5.477009    -7.298625   -14.294487     0.125728
H      5.477545    -9.775222   -14.294945     0.139450
H      8.997297    -9.775864   -16.796793     0.139666
H      8.997566    -7.298472   -16.796873     0.125791
C      7.237040   -11.361038   -15.545741     0.320286
N      7.235356   -12.510837   -15.546153    -0.303750
C      7.236554   -24.905616   -15.545484     0.129632
C      6.531572   -24.158292   -16.533661    -0.125242
C      6.528989   -22.765031   -16.536367    -0.104837
C      7.236364   -22.055901   -15.545714     0.045838
C      7.943241   -22.764842   -14.555196    -0.101780
C      7.941083   -24.158908   -14.558088    -0.120164
H      5.981399   -24.694717   -17.304135     0.125925
H      5.981778   -22.217166   -17.303891     0.137601
H      8.491346   -22.216909   -13.787488     0.140821
H      8.491091   -24.694886   -13.787465     0.126125
C      7.236605   -20.633291   -15.545893     0.307916
N      7.239794   -19.478802   -15.546261    -0.283987
C      7.237320    -0.350630   -15.545387    -0.040025
C      7.237220    -1.735463   -15.545351    -0.012385
C      7.236106   -26.358242   -15.545904    -0.060347
C      7.237176    -4.383070   -15.545398    -0.038527
C      7.236966    -5.635882   -15.544939    -0.064365
C      7.237313    -2.997960   -15.545415    -0.016429
C      7.509629   -16.099475    -8.810388     0.143626
C      8.163168   -15.076209    -9.537603    -0.159232
C      8.058374   -15.023350   -10.916188    -0.087784
C      7.321842   -16.002621   -11.601035    -0.035951
C      6.656207   -17.015598   -10.892945    -0.031443
C      6.751576   -17.070897    -9.514844    -0.124424
H      8.744894   -14.329414    -9.009277     0.111254
H      8.561595   -14.240021   -11.479573     0.127982
H      6.079965   -17.762247   -11.433427     0.129965
H      6.251676   -17.857515    -8.957951     0.104291
C      6.962822   -15.895695   -22.275108     0.118841
C      6.356292   -16.948623   -21.564904    -0.120318
C      6.459774   -17.000304   -20.176999    -0.112794
C      7.155970   -15.990342   -19.492429    -0.013416
C      7.757315   -14.929355   -20.197232    -0.086270
C      7.685251   -14.904076   -21.571598    -0.142151
H      5.806977   -17.721109   -22.090181     0.099609
H      5.993918   -17.807805   -19.615187     0.121836
H      8.318328   -14.174259   -19.652839     0.131000
H      8.140770   -14.077196   -22.126827     0.105010
C      7.809381   -16.251117    -4.793733    -0.062458
C      7.091629   -15.730549    -1.376963    -0.119842
C      6.902907   -15.630330    -3.988648    -0.066246
C      7.621025   -16.151644    -7.399841    -0.088389
C      7.028059   -15.698274    -2.602386    -0.102868
C      7.686318   -16.187457    -6.185827    -0.070838
H      8.648163   -16.810368    -4.355740     0.126060
H      6.066761   -15.074172    -4.425311     0.122491
C      0.494519   -15.931225   -15.077500     0.147973
C      1.187248   -17.106874   -15.493309    -0.129795
C      2.570646   -17.135504   -15.539565    -0.076964
C      3.322941   -15.987163   -15.185412    -0.054145
C      2.635180   -14.831731   -14.739961    -0.083954
C      1.270558   -14.815602   -14.712165    -0.110698
H      0.621630   -17.986487   -15.783476     0.108916
H      3.098502   -18.031562   -15.862187     0.121224
H      3.228408   -13.957575   -14.469358     0.124175
H      0.749755   -13.901257   -14.383383     0.104757
C     14.258789   -16.095496   -16.010270     0.175088
C     13.231312   -14.934768   -15.668536    -0.027522
C     11.916168   -14.828298   -15.604407    -0.085406
C     10.996850   -16.093008   -15.889814    -0.198161
C     11.752065   -17.186190   -16.277737     0.045456
C     13.241922   -17.083822   -16.290070    -0.287363
H     13.857459   -13.960237   -15.397912     0.073294
H     11.379002   -13.962349   -15.335041     0.125714
H     11.363690   -17.998641   -16.529119     0.141524
H     13.732105   -18.153137   -16.621460     0.077220
C     18.684696   -15.798915   -17.245349    -0.037251
C     14.985170   -16.091889   -15.976740    -0.026694
C     18.067176   -16.134411   -16.188330    -0.179538
C     21.360298   -15.849321   -17.365405    -0.114340
C     16.566199   -16.079315   -16.176349     0.431194
C     20.023599   -15.847374   -17.280321    -0.196930
H     18.128523   -15.490664   -18.180038     0.148065
H     18.539144   -16.442300   -15.228398     0.173342
Zn     7.217545   -14.493287   -15.552802     1.030767
Zn     7.211968   -17.496461   -15.537231     0.952557
C      9.950308   -15.990942   -15.766098     0.753403
C      4.729227   -15.993003   -15.351562     0.606096
C      7.144393   -15.995933   -18.037661     0.591893
C      7.326032   -15.997609   -13.050895     0.712912
O      5.293096   -17.151081   -15.436934    -0.628137
O      9.144803   -17.128704   -15.660914    -0.943200
O      7.120791   -17.149376   -17.495954    -0.562915
O      7.336011   -17.143638   -13.591537    -0.642731
O      7.139668   -14.845968   -17.497641    -0.528258
O      9.174862   -14.843479   -15.658704    -0.854082
O      5.287947   -14.846506   -15.426272    -0.570465
O      7.356355   -14.846340   -13.592492    -0.638215
 
 Chargemol version 3.5 September 26, 2017.
See ddec.sourceforge.net for latest version.
 
Computational parameters:
Number of radial integration shells =    100
Cutoff radius (pm) =    500
Error in the integrated total number of electrons before renormalization (e) =    3.3253E-01
Charge convergence tolerance =    1.0000E-05
Minimum radius for electron cloud penetration fitting (pm) =    200
Minimum decay exponent for electron density of buried atom tails =   1.7500
Maximum decay exponent for electron density of buried atom tails =  2.5000
Number of iterations to convergence =      7
 
The following XYZ coordinates are in angstroms. The atomic dipoles and quadrupoles are in atomic units.
atom number, atomic symbol, x, y, z, net_charge, dipole_x, dipole_y, dipole_z, dipole_mag, Qxy, Qxz, Qyz,Q(x^2-y^2), Q(3z^2 - R^2), three eigenvalues of traceless quadrupole moment tensor
    1 C      7.236985    -7.088521   -15.545593     0.128561    -0.000572     0.031025    -0.000397     0.031033    -0.000434    -0.013873    -0.000141    -0.074784    -0.091450    -0.040804    -0.011833     0.052636
    2 C      6.247831    -7.834492   -14.842334    -0.124463     0.014946    -0.021670    -0.011447     0.028706    -0.019400    -0.024765     0.013863     0.005838    -0.029304    -0.027261    -0.012914     0.040174
    3 C      6.244052    -9.228667   -14.840519    -0.105550     0.017006     0.023715    -0.013146     0.032007     0.018500    -0.025504    -0.013307     0.014527    -0.021017    -0.025129    -0.015467     0.040596
    4 C      7.237896    -9.936520   -15.545938     0.046168     0.000762     0.004537    -0.000104     0.004602    -0.001624    -0.026340     0.000393    -0.093905    -0.133182    -0.062688    -0.006496     0.069184
    5 C      8.229088    -9.227846   -16.250394    -0.100881    -0.017455     0.023459     0.012910     0.031964    -0.019151    -0.024843     0.012564     0.013912    -0.023789    -0.025099    -0.015107     0.040206
    6 C      8.226379    -7.834997   -16.248633    -0.123125    -0.015038    -0.021995     0.010954     0.028808     0.019028    -0.024931    -0.014934     0.006852    -0.028975    -0.027284    -0.013378     0.040662
    7 H      5.477009    -7.298625   -14.294487     0.125728    -0.039143     0.025630     0.027676     0.054360    -0.006513    -0.022298     0.004589     0.000721    -0.030388    -0.025967     0.001493     0.024474
    8 H      5.477545    -9.775222   -14.294945     0.139450    -0.040828    -0.027869     0.028958     0.057290     0.007499    -0.021956    -0.005597    -0.000694    -0.030977    -0.025981     0.001013     0.024968
    9 H      8.997297    -9.775864   -16.796793     0.139666     0.040964    -0.028400    -0.029221     0.057779    -0.007777    -0.022069     0.005277    -0.001488    -0.032404    -0.026457     0.001462     0.024995
   10 H      8.997566    -7.298472   -16.796873     0.125791     0.039322     0.025819    -0.028145     0.054818     0.006615    -0.022394    -0.004761     0.000977    -0.030825    -0.026088     0.001344     0.024744
   11 C      7.237040   -11.361038   -15.545741     0.320286     0.003676     0.046280    -0.003791     0.046581    -0.001023    -0.036738     0.003910     0.174177     0.125438    -0.108097     0.015345     0.092752
   12 N      7.235356   -12.510837   -15.546153    -0.303750    -0.002678    -0.043419    -0.007431     0.044131     0.005767    -0.009661    -0.000410     0.203715     0.209909    -0.137005     0.058724     0.078282
   13 C      7.236554   -24.905616   -15.545484     0.129632     0.000269    -0.031504    -0.001524     0.031542    -0.000278     0.013097    -0.000242    -0.081139    -0.062730    -0.039395    -0.011632     0.051027
   14 C      6.531572   -24.158292   -16.533661    -0.125242     0.012305     0.020831     0.015150     0.028546     0.014584     0.023857     0.020092    -0.012286     0.022235    -0.026598    -0.013791     0.040390
   15 C      6.528989   -22.765031   -16.536367    -0.104837     0.013745    -0.023584     0.016746     0.032024    -0.012331     0.025229    -0.018516    -0.003382     0.032502    -0.024944    -0.015017     0.039961
   16 C      7.236364   -22.055901   -15.545714     0.045838     0.000962    -0.004892    -0.001874     0.005326     0.000411     0.026445    -0.000537    -0.112431    -0.075702    -0.062413    -0.006423     0.068836
   17 C      7.943241   -22.764842   -14.555196    -0.101780    -0.011424    -0.023393    -0.019300     0.032408     0.013630     0.025003     0.018400    -0.001579     0.031138    -0.024112    -0.016137     0.040250
   18 C      7.941083   -24.158908   -14.558088    -0.120164    -0.009136     0.021497    -0.016582     0.028645    -0.014261     0.024499    -0.019620    -0.011071     0.021638    -0.026793    -0.013433     0.040225
   19 H      5.981399   -24.694717   -17.304135     0.125925    -0.027784    -0.025816    -0.038860     0.054300     0.004710     0.022192     0.006524    -0.014868     0.016084    -0.025879     0.001461     0.024418
   20 H      5.981778   -22.217166   -17.303891     0.137601    -0.028941     0.027786    -0.041050     0.057400    -0.005325     0.022087    -0.007511    -0.015971     0.014299    -0.026149     0.001217     0.024931
   21 H      8.491346   -22.216909   -13.787488     0.140821     0.029907     0.028391     0.041227     0.058310     0.005655     0.022248     0.007862    -0.016413     0.014134    -0.026448     0.001052     0.025396
   22 H      8.491091   -24.694886   -13.787465     0.126125     0.028399    -0.025805     0.039189     0.054847    -0.004834     0.022478    -0.006759    -0.014636     0.016180    -0.026073     0.001210     0.024863
   23 C      7.236605   -20.633291   -15.545893     0.307916     0.004079    -0.048640    -0.001217     0.048826     0.001982     0.038671     0.001597     0.145879     0.194920    -0.105460     0.012149     0.093311
   24 N      7.239794   -19.478802   -15.546261    -0.283987     0.006709     0.049111    -0.000036     0.049568     0.000723     0.009559     0.001071     0.184895     0.184743    -0.123247     0.052061     0.071186
   25 C      7.237320    -0.350630   -15.545387    -0.040025     0.000704    -0.132687     0.000055     0.132689    -0.000064    -0.005605    -0.000234     0.118912     0.110940    -0.077947     0.033025     0.044922
   26 C      7.237220    -1.735463   -15.545351    -0.012385     0.000708     0.129503    -0.000274     0.129505    -0.000060     0.003002    -0.000336     0.118087     0.120795    -0.079177     0.036511     0.042666
   27 C      7.236106   -26.358242   -15.545904    -0.060347     0.001032     0.114556    -0.000770     0.114563    -0.000231     0.030591    -0.000180     0.139212     0.179145    -0.099464     0.017553     0.081911
   28 C      7.237176    -4.383070   -15.545398    -0.038527     0.000389     0.132356    -0.000034     0.132356     0.000327     0.005584    -0.000226     0.115002     0.123964    -0.078163     0.033066     0.045098
   29 C      7.236966    -5.635882   -15.544939    -0.064365    -0.000733    -0.114059    -0.000748     0.114064     0.000941    -0.030794    -0.000233     0.160907     0.118692    -0.100241     0.017566     0.082675
   30 C      7.237313    -2.997960   -15.545415    -0.016429     0.000458    -0.129611    -0.000001     0.129612     0.000076    -0.002771    -0.000031     0.119092     0.115419    -0.078782     0.036472     0.042311
   31 C      7.509629   -16.099475    -8.810388     0.143626    -0.018806    -0.000367     0.022966     0.029686     0.007719    -0.002193     0.005711    -0.016436     0.166067    -0.039136    -0.016681     0.055817
   32 C      8.163168   -15.076209    -9.537603    -0.159232    -0.009295    -0.003041    -0.017630     0.020161     0.024551     0.011821     0.021418    -0.011387     0.000165    -0.026329    -0.013552     0.039881
   33 C      8.058374   -15.023350   -10.916188    -0.087784    -0.013825    -0.021535     0.013597     0.028978     0.006735    -0.011744    -0.010000    -0.018425    -0.016727    -0.017935    -0.003290     0.021225
   34 C      7.321842   -16.002621   -11.601035    -0.035951     0.003530    -0.002424     0.048883     0.049070    -0.013098     0.002223     0.001127    -0.010956    -0.019499    -0.012051    -0.005400     0.017451
   35 C      6.656207   -17.015598   -10.892945    -0.031443     0.014973     0.018969     0.006422     0.025005     0.000956     0.009763     0.016109    -0.012124    -0.031204    -0.022212     0.000928     0.021284
   36 C      6.751576   -17.070897    -9.514844    -0.124424     0.017874     0.016159    -0.011160     0.026554     0.030519    -0.012124    -0.015241    -0.012420    -0.000299    -0.031097    -0.009431     0.040528
   37 H      8.744894   -14.329414    -9.009277     0.111254     0.025632     0.035799     0.021985     0.049213     0.021056     0.005874     0.003871    -0.014679     0.014219    -0.024894     0.002510     0.022385
   38 H      8.561595   -14.240021   -11.479573     0.127982     0.024180     0.038950    -0.030522     0.055076     0.019433    -0.006370    -0.007539    -0.018541     0.002410    -0.022023    -0.003050     0.025073
   39 H      6.079965   -17.762247   -11.433427     0.129965    -0.023582    -0.034835    -0.030285     0.051834     0.015388     0.009893     0.006215    -0.015545     0.003405    -0.019340    -0.002744     0.022085
   40 H      6.251676   -17.857515    -8.957951     0.104291    -0.025909    -0.037397     0.024044     0.051458     0.022633    -0.002842    -0.007621    -0.017039     0.013428    -0.026556     0.001568     0.024988
   41 C      6.962822   -15.895695   -22.275108     0.118841    -0.027346     0.020195    -0.021679     0.040319     0.021736     0.010878    -0.010403    -0.009622     0.170989    -0.052809    -0.006261     0.059070
   42 C      6.356292   -16.948623   -21.564904    -0.120318     0.002131     0.017454     0.009074     0.019787    -0.009919     0.014071     0.021605    -0.034953    -0.022667    -0.033736     0.000812     0.032924
   43 C      6.459774   -17.000304   -20.176999    -0.112794     0.015128     0.022653    -0.010174     0.029078     0.004667    -0.008576    -0.016064    -0.024178    -0.023303    -0.019139    -0.006864     0.026003
   44 C      7.155970   -15.990342   -19.492429    -0.013416     0.000926     0.003174    -0.047606     0.047720    -0.017086     0.010086    -0.004580    -0.008366    -0.017869    -0.017507    -0.006375     0.023882
   45 C      7.757315   -14.929355   -20.197232    -0.086270    -0.032671    -0.014992    -0.006402     0.036512    -0.002968     0.014194     0.009427     0.004902    -0.047973    -0.025302     0.008555     0.016748
   46 C      7.685251   -14.904076   -21.571598    -0.142151    -0.020649    -0.007855     0.015149     0.026787     0.026658    -0.014406    -0.019443    -0.014591     0.022095    -0.031325    -0.009915     0.041240
   47 H      5.806977   -17.721109   -22.090181     0.099609    -0.026358    -0.039896    -0.022575     0.052878     0.021963     0.005501     0.003204    -0.018675     0.004006    -0.024845     0.000238     0.024607
   48 H      5.993918   -17.807805   -19.615187     0.121836    -0.022513    -0.040960     0.030162     0.055626     0.020559    -0.006759    -0.007332    -0.021838    -0.006582    -0.022405    -0.005182     0.027587
   49 H      8.318328   -14.174259   -19.652839     0.131000     0.029827     0.036947     0.030016     0.056175     0.021186     0.011527     0.004326    -0.013339    -0.006567    -0.023500    -0.003558     0.027058
   50 H      8.140770   -14.077196   -22.126827     0.105010     0.021185     0.041760    -0.024905     0.053037     0.021766    -0.001491    -0.007217    -0.021881     0.016075    -0.027241     0.003002     0.024239
   51 C      7.809381   -16.251117    -4.793733    -0.062458     0.002509     0.000093    -0.041184     0.041261     0.004823     0.018701    -0.006838     0.016898     0.131741    -0.033682    -0.016123     0.049805
   52 C      7.091629   -15.730549    -1.376963    -0.119842    -0.013811     0.013929     0.129406     0.130885     0.064788    -0.025851     0.013377    -0.041098    -0.268763    -0.100394    -0.012470     0.112864
   53 C      6.902907   -15.630330    -3.988648    -0.066246     0.000262     0.004183     0.061504     0.061647    -0.015549     0.013839    -0.005297     0.014119     0.091017    -0.032409    -0.004136     0.036545
   54 C      7.621025   -16.151644    -7.399841    -0.088389    -0.012254     0.014460    -0.121557     0.123026     0.055935     0.002315    -0.001439    -0.026869    -0.277093    -0.092455    -0.011253     0.103708
   55 C      7.028059   -15.698274    -2.602386    -0.102868    -0.001359     0.004458    -0.139070     0.139148    -0.023643    -0.015186     0.008405     0.025358    -0.204917    -0.070597     0.007329     0.063268
   56 C      7.686318   -16.187457    -6.185827    -0.070838    -0.007214     0.002696     0.127881     0.128113    -0.055579    -0.020594     0.004901     0.033788    -0.232427    -0.080738    -0.018244     0.098982
   57 H      8.648163   -16.810368    -4.355740     0.126060     0.041699    -0.025824     0.024183     0.054686    -0.022909     0.005746    -0.003193     0.018043     0.007652    -0.025909     0.000673     0.025236
   58 H      6.066761   -15.074172    -4.425311     0.122491    -0.042629     0.028566    -0.021059     0.055468    -0.022957     0.006497    -0.003941     0.019019     0.012718    -0.026972     0.001525     0.025447
   59 C      0.494519   -15.931225   -15.077500     0.147973    -0.010837     0.005242    -0.004910     0.013001     0.000506    -0.009199     0.004976     0.033521    -0.045333    -0.019541    -0.006826     0.026367
   60 C      1.187248   -17.106874   -15.493309    -0.129795     0.010850     0.017951     0.000447     0.020980     0.019838     0.006163     0.006660    -0.023049    -0.088136    -0.030705    -0.008076     0.038782
   61 C      2.570646   -17.135504   -15.539565    -0.076964    -0.006402     0.032202     0.014058     0.035716    -0.014236    -0.004349     0.000043    -0.033895    -0.014992    -0.020695    -0.004017     0.024712
   62 C      3.322941   -15.987163   -15.185412    -0.054145    -0.050246    -0.004194     0.009231     0.051259     0.002152     0.000787    -0.005563    -0.006718     0.020839    -0.007920    -0.002092     0.010012
   63 C      2.635180   -14.831731   -14.739961    -0.083954    -0.003033    -0.031142    -0.016228     0.035247     0.020438     0.013824    -0.057704    -0.035458     0.003298    -0.062169    -0.005726     0.067895
   64 C      1.270558   -14.815602   -14.712165    -0.110698     0.004239    -0.022826    -0.022797     0.032538    -0.024370    -0.013893    -0.001101    -0.008871    -0.041437    -0.027852    -0.005286     0.033137
   65 H      0.621630   -17.986487   -15.783476     0.108916    -0.024734    -0.044257    -0.012575     0.052236     0.007174     0.002146     0.013618    -0.014720    -0.065551    -0.026035     0.000959     0.025076
   66 H      3.098502   -18.031562   -15.862187     0.121224     0.028268    -0.046722    -0.014884     0.056600    -0.007112    -0.005780     0.013096    -0.025695    -0.047855    -0.020910    -0.006381     0.027292
   67 H      3.228408   -13.957575   -14.469358     0.124175     0.036185     0.042532     0.006707     0.056244     0.008402     0.009706     0.012827    -0.021561    -0.048263    -0.022798    -0.004407     0.027205
   68 H      0.749755   -13.901257   -14.383383     0.104757    -0.026686     0.044789     0.014406     0.054090    -0.006346    -0.004051     0.015550    -0.014481    -0.063943    -0.026836     0.001109     0.025727
   69 C     14.258789   -16.095496   -16.010270     0.175088    -0.156658     0.005435    -0.003551     0.156792    -0.017166    -0.012492    -0.031691    -0.045086     0.246206    -0.072732    -0.018836     0.091568
   70 C     13.231312   -14.934768   -15.668536    -0.027522     0.052711    -0.095286    -0.022358     0.111166    -0.020068    -0.009389     0.029403    -0.068179    -0.231665    -0.083138    -0.000927     0.084065
   71 C     11.916168   -14.828298   -15.604407    -0.085406    -0.066665    -0.054988    -0.014203     0.087577    -0.001897     0.005613    -0.009144    -0.060986    -0.035912    -0.026691    -0.011588     0.038279
   72 C     10.996850   -16.093008   -15.889814    -0.198161     0.151328    -0.012932    -0.009889     0.152201     0.037708     0.022555     0.010205    -0.090793    -0.073107    -0.057166    -0.017134     0.074300
   73 C     11.752065   -17.186190   -16.277737     0.045456    -0.051255     0.034493     0.040211     0.073714     0.018489     0.013441    -0.000768    -0.035143    -0.016489    -0.029526     0.000597     0.028929
   74 C     13.241922   -17.083822   -16.290070    -0.287363     0.054763     0.086377     0.045093     0.111773     0.018704    -0.005878     0.070137     0.004231    -0.411292    -0.159470     0.061522     0.097949
   75 H     13.857459   -13.960237   -15.397912     0.073294     0.032132     0.055916     0.013471     0.065882     0.007849     0.002248     0.015610    -0.022608    -0.084824    -0.032482     0.000544     0.031938
   76 H     11.379002   -13.962349   -15.335041     0.125714    -0.031471     0.038423     0.008289     0.050353    -0.009159     0.003115     0.009874    -0.045133    -0.030987    -0.021701    -0.009818     0.031519
   77 H     11.363690   -17.998641   -16.529119     0.141524    -0.028264    -0.039667    -0.008512     0.049444     0.006252     0.003884     0.009787    -0.015431    -0.035356    -0.015350    -0.004026     0.019377
   78 H     13.732105   -18.153137   -16.621460     0.077220     0.023676    -0.063402    -0.017507     0.069906     0.001911     0.000234     0.020972    -0.016225    -0.099366    -0.039933     0.008297     0.031636
   79 C     18.684696   -15.798915   -17.245349    -0.037251     0.020780    -0.007420    -0.009889     0.024179     0.003406     0.024069     0.012263     0.054786    -0.011032    -0.032052    -0.011017     0.043069
   80 C     14.985170   -16.091889   -15.976740    -0.026694     0.113916    -0.003210     0.014705     0.114906    -0.004036    -0.004561    -0.044899    -0.081973     0.396272    -0.107442    -0.036617     0.144059
   81 C     18.067176   -16.134411   -16.188330    -0.179538     0.014971     0.003658    -0.001146     0.015454    -0.013141     0.038895    -0.027253     0.105720     0.074596    -0.072941    -0.004710     0.077651
   82 C     21.360298   -15.849321   -17.365405    -0.114340     0.098786     0.003141     0.009423     0.099284     0.001474    -0.000844     0.019377    -0.171670     0.102815    -0.102991     0.025581     0.077410
   83 C     16.566199   -16.079315   -16.176349     0.431194     0.034705     0.014086    -0.101058     0.107776    -0.017068     0.048052    -0.238102     0.336944     1.391409    -0.461686    -0.067728     0.529414
   84 C     20.023599   -15.847374   -17.280321    -0.196930    -0.115604     0.002816     0.012842     0.116349     0.008373     0.002223    -0.032692    -0.084059     0.238190    -0.082750    -0.008650     0.091400
   85 H     18.128523   -15.490664   -18.180038     0.148065    -0.027380     0.007155    -0.038642     0.047897    -0.003240     0.005634    -0.013894     0.035447     0.039192    -0.028903     0.007321     0.021582
   86 H     18.539144   -16.442300   -15.228398     0.173342     0.028235    -0.015334     0.047199     0.057097    -0.002990     0.006529    -0.015682     0.020393     0.057609    -0.025338    -0.001349     0.026687
   87 Zn     7.217545   -14.493287   -15.552802     1.030767     0.023534     0.010362    -0.004057     0.026032    -0.017342     0.003362    -0.014326     0.000644     0.061867    -0.029021     0.000203     0.028817
   88 Zn     7.211968   -17.496461   -15.537231     0.952557    -0.004005    -0.070559    -0.002428     0.070714    -0.004736     0.005500    -0.006586     0.036915     0.052287    -0.028530     0.006911     0.021619
   89 C      9.950308   -15.990942   -15.766098     0.753403    -0.134944    -0.001212     0.006971     0.135129     0.011517     0.017023     0.020499    -0.096006     0.095482    -0.067506     0.011643     0.055863
   90 C      4.729227   -15.993003   -15.351562     0.606096     0.057458    -0.002436    -0.012435     0.058839     0.000402     0.021115     0.008948    -0.049196     0.280066    -0.073951    -0.022741     0.096691
   91 C      7.144393   -15.995933   -18.037661     0.591893     0.004336     0.000440     0.061729     0.061883     0.012054     0.005729     0.000058     0.146938    -0.193000    -0.064532    -0.042277     0.106809
   92 C      7.326032   -15.997609   -13.050895     0.712912     0.009595    -0.001958    -0.065139     0.065871     0.013086    -0.000398    -0.002338     0.149866    -0.213251    -0.071257    -0.040354     0.111611
   93 O      5.293096   -17.151081   -15.436934    -0.628137    -0.016445     0.008214    -0.003706     0.018752    -0.071666     0.012749     0.008492    -0.060868     0.039405    -0.086776     0.015483     0.071293
   94 O      9.144803   -17.128704   -15.660914    -0.943200     0.058791     0.064181    -0.014053     0.088165     0.078507    -0.025244    -0.022682    -0.038023    -0.121718    -0.062700    -0.045868     0.108568
   95 O      7.120791   -17.149376   -17.495954    -0.562915    -0.007486     0.021882     0.003477     0.023388     0.005970     0.001115    -0.065952     0.003908    -0.114581    -0.082220     0.020754     0.061466
   96 O      7.336011   -17.143638   -13.591537    -0.642731     0.012061     0.006235     0.001739     0.013689    -0.004479    -0.001740     0.060882    -0.004023    -0.156832    -0.085031     0.023522     0.061509
   97 O      7.139668   -14.845968   -17.497641    -0.528258    -0.000974    -0.025894     0.001657     0.025966    -0.013850    -0.002841     0.064687     0.005016    -0.115214    -0.081437     0.017853     0.063584
   98 O      9.174862   -14.843479   -15.658704    -0.854082     0.064170    -0.022805    -0.014192     0.069565    -0.104177    -0.024244    -0.008963     0.029415    -0.087331    -0.098172    -0.022641     0.120812
   99 O      5.287947   -14.846506   -15.426272    -0.570465    -0.018065    -0.019728    -0.003531     0.026982     0.060474     0.003139    -0.010310    -0.050886     0.102927    -0.083353     0.032050     0.051303
  100 O      7.356355   -14.846340   -13.592492    -0.638215     0.017613    -0.015472    -0.008117     0.024809    -0.007203     0.000294    -0.047744    -0.018469    -0.115042    -0.063353     0.009106     0.054247
 
The sperically averaged electron density of each atom fit to a function of the form exp(a - br) for r >=rmin_cloud_penetration
atom number,atomic symbol, x, y, z, a, b, Rsquared where a and b are in atomic units and Rsquared is the squared correlation coefficient
    1 C      7.236985    -7.088521   -15.545593     2.432864     2.462838     0.996766
    2 C      6.247831    -7.834492   -14.842334     2.159855     2.402578     0.997190
    3 C      6.244052    -9.228667   -14.840519     1.861562     2.367672     0.999120
    4 C      7.237896    -9.936520   -15.545938     2.255820     2.455060     0.997843
    5 C      8.229088    -9.227846   -16.250394     1.640469     2.328373     0.999352
    6 C      8.226379    -7.834997   -16.248633     2.172178     2.405774     0.997259
    7 H      5.477009    -7.298625   -14.294487    -0.575691     2.362145     0.998736
    8 H      5.477545    -9.775222   -14.294945    -1.150170     2.284062     0.998785
    9 H      8.997297    -9.775864   -16.796793    -1.397768     2.229966     0.999602
   10 H      8.997566    -7.298472   -16.796873    -0.531088     2.371306     0.998670
   11 C      7.237040   -11.361038   -15.545741     0.436669     2.168784     0.999533
   12 N      7.235356   -12.510837   -15.546153    -0.497123     1.962483     0.999296
   13 C      7.236554   -24.905616   -15.545484     2.428324     2.462098     0.996753
   14 C      6.531572   -24.158292   -16.533661     2.154796     2.400763     0.997185
   15 C      6.528989   -22.765031   -16.536367     1.820747     2.358864     0.999166
   16 C      7.236364   -22.055901   -15.545714     2.262221     2.453946     0.997799
   17 C      7.943241   -22.764842   -14.555196     1.769483     2.352936     0.999106
   18 C      7.941083   -24.158908   -14.558088     2.145770     2.402166     0.997378
   19 H      5.981399   -24.694717   -17.304135    -0.448376     2.385543     0.998930
   20 H      5.981778   -22.217166   -17.303891    -1.104686     2.289763     0.999134
   21 H      8.491346   -22.216909   -13.787488    -1.322581     2.252923     0.998374
   22 H      8.491091   -24.694886   -13.787465    -0.514866     2.374082     0.998693
   23 C      7.236605   -20.633291   -15.545893     0.401235     2.165113     0.999128
   24 N      7.239794   -19.478802   -15.546261    -0.583818     1.959225     0.999092
   25 C      7.237320    -0.350630   -15.545387     2.706909     2.537607     0.998230
   26 C      7.237220    -1.735463   -15.545351     3.645228     2.723967     0.995551
   27 C      7.236106   -26.358242   -15.545904     2.615181     2.514639     0.997422
   28 C      7.237176    -4.383070   -15.545398     3.012567     2.602897     0.997358
   29 C      7.236966    -5.635882   -15.544939     2.593245     2.508691     0.997439
   30 C      7.237313    -2.997960   -15.545415     3.646738     2.722582     0.995477
   31 C      7.509629   -16.099475    -8.810388     1.945690     2.373883     0.997924
   32 C      8.163168   -15.076209    -9.537603     1.825559     2.338737     0.998188
   33 C      8.058374   -15.023350   -10.916188     0.714822     2.144076     0.998785
   34 C      7.321842   -16.002621   -11.601035     1.028093     2.210237     0.999114
   35 C      6.656207   -17.015598   -10.892945     0.841306     2.180545     0.999445
   36 C      6.751576   -17.070897    -9.514844     1.775038     2.334796     0.998496
   37 H      8.744894   -14.329414    -9.009277    -0.657411     2.347389     0.998015
   38 H      8.561595   -14.240021   -11.479573    -1.758656     2.118666     0.999503
   39 H      6.079965   -17.762247   -11.433427    -1.688333     2.117262     0.999876
   40 H      6.251676   -17.857515    -8.957951    -0.597335     2.345513     0.998078
   41 C      6.962822   -15.895695   -22.275108     1.790938     2.339953     0.997927
   42 C      6.356292   -16.948623   -21.564904     1.784377     2.334037     0.998511
   43 C      6.459774   -17.000304   -20.176999     0.721936     2.135274     0.998899
   44 C      7.155970   -15.990342   -19.492429     1.157782     2.230155     0.999166
   45 C      7.757315   -14.929355   -20.197232     0.775948     2.150116     0.999170
   46 C      7.685251   -14.904076   -21.571598     1.765330     2.328736     0.998449
   47 H      5.806977   -17.721109   -22.090181    -0.635286     2.339551     0.998247
   48 H      5.993918   -17.807805   -19.615187    -1.792036     2.113152     0.999441
   49 H      8.318328   -14.174259   -19.652839    -1.875845     2.096241     0.999397
   50 H      8.140770   -14.077196   -22.126827    -0.634454     2.348212     0.998065
   51 C      7.809381   -16.251117    -4.793733     2.354953     2.472157     0.997762
   52 C      7.091629   -15.730549    -1.376963     2.155330     2.410395     0.998220
   53 C      6.902907   -15.630330    -3.988648     2.380221     2.470984     0.997564
   54 C      7.621025   -16.151644    -7.399841     2.232827     2.438603     0.997824
   55 C      7.028059   -15.698274    -2.602386     2.140193     2.416403     0.999136
   56 C      7.686318   -16.187457    -6.185827     2.224912     2.449412     0.999171
   57 H      8.648163   -16.810368    -4.355740    -0.339475     2.377037     0.997484
   58 H      6.066761   -15.074172    -4.425311    -0.383209     2.369085     0.997568
   59 C      0.494519   -15.931225   -15.077500     1.965240     2.378559     0.997700
   60 C      1.187248   -17.106874   -15.493309     1.771667     2.333596     0.998323
   61 C      2.570646   -17.135504   -15.539565     0.575450     2.117085     0.998541
   62 C      3.322941   -15.987163   -15.185412     0.803396     2.150575     0.999296
   63 C      2.635180   -14.831731   -14.739961     0.701710     2.138116     0.998884
   64 C      1.270558   -14.815602   -14.712165     1.842271     2.351954     0.998110
   65 H      0.621630   -17.986487   -15.783476    -0.491138     2.372982     0.998160
   66 H      3.098502   -18.031562   -15.862187    -1.893566     2.088951     0.998898
   67 H      3.228408   -13.957575   -14.469358    -1.749249     2.122620     0.998909
   68 H      0.749755   -13.901257   -14.383383    -0.546612     2.365781     0.998761
   69 C     14.258789   -16.095496   -16.010270     1.088731     2.226497     0.997895
   70 C     13.231312   -14.934768   -15.668536     1.405771     2.297941     0.999297
   71 C     11.916168   -14.828298   -15.604407     0.703622     2.141849     0.998312
   72 C     10.996850   -16.093008   -15.889814     0.006169     1.965629     0.999453
   73 C     11.752065   -17.186190   -16.277737     0.429604     2.127185     0.997437
   74 C     13.241922   -17.083822   -16.290070     0.968086     2.154032     0.999426
   75 H     13.857459   -13.960237   -15.397912    -0.078146     2.387370     0.998939
   76 H     11.379002   -13.962349   -15.335041    -1.397381     2.145741     0.999083
   77 H     11.363690   -17.998641   -16.529119    -1.762577     2.137132     0.998518
   78 H     13.732105   -18.153137   -16.621460    -0.364549     2.352056     0.998934
   79 C     18.684696   -15.798915   -17.245349     2.604215     2.505662     0.996262
   80 C     14.985170   -16.091889   -15.976740     1.176634     2.230696     0.997028
   81 C     18.067176   -16.134411   -16.188330     2.662379     2.509626     0.995615
   82 C     21.360298   -15.849321   -17.365405     2.169855     2.423773     0.998935
   83 C     16.566199   -16.079315   -16.176349     1.448079     2.388496     0.999615
   84 C     20.023599   -15.847374   -17.280321     1.813948     2.335270     0.999541
   85 H     18.128523   -15.490664   -18.180038    -0.677860     2.320912     0.996782
   86 H     18.539144   -16.442300   -15.228398    -0.238727     2.380022     0.996500
   87 Zn     7.217545   -14.493287   -15.552802    -0.142284     1.861765     0.999493
   88 Zn     7.211968   -17.496461   -15.537231    -0.192556     1.852061     0.999536
   89 C      9.950308   -15.990942   -15.766098    -0.830967     1.910669     0.999504
   90 C      4.729227   -15.993003   -15.351562    -0.300886     1.975744     0.999511
   91 C      7.144393   -15.995933   -18.037661    -0.156143     2.002477     0.999747
   92 C      7.326032   -15.997609   -13.050895    -0.442846     1.964978     0.999592
   93 O      5.293096   -17.151081   -15.436934    -0.709528     1.868840     0.999921
   94 O      9.144803   -17.128704   -15.660914    -0.717631     1.828048     0.999958
   95 O      7.120791   -17.149376   -17.495954    -0.715388     1.887547     0.999956
   96 O      7.336011   -17.143638   -13.591537    -0.734882     1.870114     0.999966
   97 O      7.139668   -14.845968   -17.497641    -0.686159     1.902995     0.999923
   98 O      9.174862   -14.843479   -15.658704    -0.712242     1.835040     0.999919
   99 O      5.287947   -14.846506   -15.426272    -0.672967     1.897825     0.999919
  100 O      7.356355   -14.846340   -13.592492    -0.657907     1.875914     0.999929
 
 2025/04/09  10:04:02
