   54
jmolscript: load "" {1 1 1} spacegroup "x,y,z" unitcell [{      6.998996     0.000000     0.000000 }, {     -2.333968    15.064195     0.000000 }, {     -2.333291    -7.531843    13.046294 }]
C      0.646323    -2.012144     7.954853     0.633297
C     -0.317200    -2.880077     7.219173    -0.145469
C      5.319234    -2.515377     7.000517     0.307065
C      4.512022    -3.420519     6.302931    -0.198364
C      2.978991     1.649870     7.326152     0.630409
C      2.015509     2.721077     6.942069    -0.142599
C      0.652868     2.727938     7.367509     0.306542
C     -0.154462     3.784682     6.932284    -0.199818
C     -1.687102     0.363296    10.812125     0.631123
C     -2.650665     0.160324    11.931628    -0.143250
C      2.985721    -0.211463    11.724974     0.307971
C      2.178442    -0.362915    12.857785    -0.200231
C      1.685604     9.545115     5.091581     0.633563
C      2.649056    10.413049     5.827262    -0.145660
C     -2.987377    10.048349     6.045918     0.306102
C     -2.180142    10.953340     6.743504    -0.197949
C     -0.647135     5.883101     5.720544     0.631528
C      0.316371     4.811744     6.104627    -0.143060
C      1.679034     4.804958     5.679317     0.306383
C      2.486295     3.748214     6.114542    -0.200253
C      4.018982     7.169299     2.234701     0.629995
C      4.982499     7.372346     1.115067    -0.142484
C     -0.653888     7.744133     1.321460     0.307563
C      0.153438     7.895510     0.188780    -0.199671
H      3.470307    -3.157878     6.123283     0.140017
H     -1.196215     3.808865     7.249701     0.139679
H      1.136689    -0.649814    12.720147     0.139539
H     -1.138427    10.690699     6.923152     0.139997
H      3.528095     3.723955     5.796995     0.139901
H      1.195144     8.182484     0.326549     0.139470
O      0.191054    -0.914259     8.443046    -0.595375
O      1.864633    -2.370142     8.072923    -0.527549
O      4.757112    -1.347822     7.418650    -0.601271
O      2.524004     0.678017     8.032870    -0.594286
O      4.197490     1.726767     6.957072    -0.526363
O      0.090859     1.782072     8.169596    -0.601431
O     -2.142096     0.236963     9.616952    -0.594698
O     -0.468701     0.644548    11.063136    -0.526580
O      2.423837    -0.433227    10.504623    -0.602363
O      2.140803     8.447005     4.603519    -0.595502
O      0.467223     9.902887     4.973643    -0.527507
O     -2.425256     8.880568     5.627915    -0.600996
O     -0.192101     6.854654     5.013825    -0.594679
O     -1.865633     5.806205     6.089624    -0.526650
O      2.240997     5.750899     4.877100    -0.601381
O      4.473952     7.295556     3.429482    -0.593888
O      2.800534     6.888122     1.983560    -0.526255
O     -0.091980     7.965746     2.541811    -0.602391
Zn    -1.389369     0.486697     7.744547     0.988708
Zn     0.943537     0.582460     9.595426     0.987742
Zn     3.276675    -1.068210     8.753026     0.987480
Zn     3.721249     7.046124     5.302149     0.988805
Zn     1.388366     6.950210     3.451269     0.987905
Zn    -0.944818     8.600955     4.293539     0.987190
 
 Chargemol version 3.5 September 26, 2017.
See ddec.sourceforge.net for latest version.
 
Computational parameters:
Number of radial integration shells =    100
Cutoff radius (pm) =    500
Error in the integrated total number of electrons before renormalization (e) =    1.5000E-03
Charge convergence tolerance =    1.0000E-05
Minimum radius for electron cloud penetration fitting (pm) =    200
Minimum decay exponent for electron density of buried atom tails =   1.7500
Maximum decay exponent for electron density of buried atom tails =  2.5000
Number of iterations to convergence =      7
 
The following XYZ coordinates are in angstroms. The atomic dipoles and quadrupoles are in atomic units.
atom number, atomic symbol, x, y, z, net_charge, dipole_x, dipole_y, dipole_z, dipole_mag, Qxy, Qxz, Qyz,Q(x^2-y^2), Q(3z^2 - R^2), three eigenvalues of traceless quadrupole moment tensor
    1 C      0.646323    -2.012144     7.954853     0.633297     0.031995     0.031816     0.036824     0.058240    -0.011099    -0.037577    -0.055794    -0.035063     0.142100    -0.072888    -0.015071     0.087959
    2 C     -0.317200    -2.880077     7.219173    -0.145469     0.011274    -0.036032    -0.015749     0.040908    -0.007939    -0.004524     0.019800    -0.052229    -0.022996    -0.023746    -0.016032     0.039778
    3 C      5.319234    -2.515377     7.000517     0.307065    -0.037240     0.095159     0.028569     0.106105    -0.019395    -0.007845     0.013396    -0.048483    -0.051117    -0.024702    -0.018712     0.043414
    4 C      4.512022    -3.420519     6.302931    -0.198364    -0.000396    -0.037550    -0.017693     0.041511    -0.027220    -0.010807    -0.017421    -0.001810     0.005253    -0.038120     0.010431     0.027690
    5 C      2.978991     1.649870     7.326152     0.630409     0.031103    -0.048463     0.008934     0.058274     0.036758     0.010244     0.050890    -0.027999     0.166590    -0.071305    -0.016704     0.088009
    6 C      2.015509     2.721077     6.942069    -0.142599     0.011423     0.031596    -0.023141     0.040796     0.008385    -0.005286    -0.026540    -0.039767     0.009501    -0.023163    -0.016757     0.039920
    7 C      0.652868     2.727938     7.367509     0.306542    -0.039235    -0.072820     0.067667     0.106869     0.016360    -0.012285    -0.028915    -0.022308     0.026980    -0.025021    -0.018638     0.043658
    8 C     -0.154462     3.784682     6.932284    -0.199818    -0.000225     0.034406    -0.023061     0.041421     0.023537    -0.017385     0.009092     0.012950     0.047598    -0.038311     0.010861     0.027450
    9 C     -1.687102     0.363296    10.812125     0.631123     0.031910     0.016269    -0.047366     0.059384    -0.026932     0.028111     0.004723    -0.124081    -0.123929    -0.072772    -0.015526     0.088299
   10 C     -2.650665     0.160324    11.931628    -0.143250     0.012596     0.004008     0.038499     0.040705     0.000688     0.009608     0.006217    -0.004978     0.113370    -0.022920    -0.017083     0.040003
   11 C      2.985721    -0.211463    11.724974     0.307971    -0.038094    -0.023378    -0.096509     0.106357     0.002896     0.021252     0.014776     0.000407     0.095179    -0.024995    -0.018563     0.043558
   12 C      2.178442    -0.362915    12.857785    -0.200231    -0.001135     0.002379     0.041503     0.041587     0.003777     0.029754     0.008153    -0.018035    -0.047282    -0.039390     0.011331     0.028059
   13 C      1.685604     9.545115     5.091581     0.633563    -0.032092    -0.031769    -0.036625     0.058143    -0.010489    -0.037450    -0.055705    -0.034987     0.141297    -0.072253    -0.015546     0.087798
   14 C      2.649056    10.413049     5.827262    -0.145660    -0.011356     0.035609     0.016269     0.040764    -0.008512    -0.004724     0.019180    -0.052007    -0.022779    -0.023858    -0.015552     0.039410
   15 C     -2.987377    10.048349     6.045918     0.306102     0.037031    -0.095403    -0.028818     0.106318    -0.019520    -0.007892     0.012991    -0.048183    -0.051131    -0.024744    -0.018468     0.043213
   16 C     -2.180142    10.953340     6.743504    -0.197949     0.000248     0.037052     0.018043     0.041213    -0.026974    -0.010548    -0.017401    -0.001977     0.005497    -0.037782     0.010257     0.027525
   17 C     -0.647135     5.883101     5.720544     0.631528    -0.031000     0.048105    -0.008753     0.057894     0.036871     0.010077     0.050717    -0.028479     0.166637    -0.071455    -0.016432     0.087887
   18 C      0.316371     4.811744     6.104627    -0.143060    -0.010976    -0.032352     0.022932     0.041146     0.008599    -0.005127    -0.026557    -0.039832     0.008859    -0.023183    -0.016791     0.039975
   19 C      1.679034     4.804958     5.679317     0.306383     0.039503     0.072883    -0.067706     0.107035     0.016596    -0.012138    -0.028934    -0.022221     0.027473    -0.025358    -0.018370     0.043728
   20 C      2.486295     3.748214     6.114542    -0.200253    -0.000263    -0.034771     0.023090     0.041740     0.023471    -0.017238     0.008828     0.013299     0.048661    -0.038227     0.010655     0.027572
   21 C      4.018982     7.169299     2.234701     0.629995    -0.031968    -0.016867     0.046978     0.059274    -0.027230     0.027830     0.004330    -0.124787    -0.125093    -0.072732    -0.016211     0.088942
   22 C      4.982499     7.372346     1.115067    -0.142484    -0.012878    -0.004307    -0.038394     0.040725     0.000911     0.009603     0.006331    -0.004973     0.113222    -0.022880    -0.017108     0.039987
   23 C     -0.653888     7.744133     1.321460     0.307563     0.038101     0.022923     0.096647     0.106385     0.002809     0.021339     0.014905    -0.000047     0.095330    -0.025278    -0.018401     0.043679
   24 C      0.153438     7.895510     0.188780    -0.199671     0.001031    -0.002828    -0.041505     0.041614     0.004013     0.029694     0.008241    -0.018581    -0.046042    -0.039243     0.011035     0.028208
   25 H      3.470307    -3.157878     6.123283     0.140017    -0.047258     0.016084    -0.010413     0.050995    -0.012724     0.011315    -0.003260     0.008504    -0.031413    -0.016023    -0.006422     0.022444
   26 H     -1.196215     3.808865     7.249701     0.139679    -0.046959     0.001104     0.018879     0.050625    -0.003451    -0.016179    -0.003737     0.020075     0.001595    -0.016099    -0.005886     0.021985
   27 H      1.136689    -0.649814    12.720147     0.139539    -0.046993    -0.016908    -0.008379     0.050640     0.016164     0.005113     0.006573     0.014075    -0.014145    -0.016030    -0.006272     0.022302
   28 H     -1.138427    10.690699     6.923152     0.139997     0.047242    -0.016173     0.010336     0.050992    -0.012712     0.011366    -0.003252     0.008447    -0.031551    -0.016098    -0.006366     0.022464
   29 H      3.528095     3.723955     5.796995     0.139901     0.046865    -0.001171    -0.018870     0.050534    -0.003490    -0.016179    -0.003660     0.019933     0.001795    -0.016045    -0.005900     0.021946
   30 H      1.195144     8.182484     0.326549     0.139470     0.046997     0.016742     0.008409     0.050594     0.016237     0.005096     0.006634     0.013970    -0.014048    -0.016108    -0.006238     0.022346
   31 O      0.191054    -0.914259     8.443046    -0.595375     0.004416    -0.032997    -0.003095     0.033435    -0.017434    -0.029633     0.002404    -0.083422     0.064061    -0.065377     0.024687     0.040689
   32 O      1.864633    -2.370142     8.072923    -0.527549    -0.012685    -0.004041    -0.005250     0.014311    -0.008404    -0.000883    -0.030372     0.108005    -0.049151    -0.065299     0.002424     0.062875
   33 O      4.757112    -1.347822     7.418650    -0.601271     0.047443    -0.093254    -0.036762     0.110899    -0.036993    -0.050211     0.038576    -0.080135    -0.097144    -0.078627    -0.016659     0.095286
   34 O      2.524004     0.678017     8.032870    -0.594286     0.004172     0.019192    -0.026899     0.033306     0.034066     0.000023    -0.005776    -0.079440     0.080841    -0.065846     0.024897     0.040949
   35 O      4.197490     1.726767     6.957072    -0.526363    -0.014623     0.006151    -0.000439     0.015870     0.004147    -0.007661     0.028054     0.112576    -0.039908    -0.065309     0.001590     0.063719
   36 O      0.090859     1.782072     8.169596    -0.601431     0.047307     0.078110    -0.061419     0.110051     0.061398    -0.007700    -0.057961    -0.046917     0.001801    -0.077851    -0.017586     0.095437
   37 O     -2.142096     0.236963     9.616952    -0.594698     0.004103     0.013323     0.029827     0.032924    -0.016368     0.029646     0.003149    -0.074834     0.091600    -0.065298     0.025028     0.040270
   38 O     -0.468701     0.644548    11.063136    -0.526580    -0.013837    -0.002533     0.005993     0.015291     0.004600     0.007610     0.001564     0.060634    -0.195900    -0.065774     0.002000     0.063774
   39 O      2.423837    -0.433227    10.504623    -0.602363     0.046982     0.014532     0.099658     0.111132    -0.024282     0.057419     0.018702     0.019686     0.202111    -0.077910    -0.017479     0.095389
   40 O      2.140803     8.447005     4.603519    -0.595502    -0.004474     0.032512     0.003470     0.033001    -0.017362    -0.029547     0.002497    -0.083838     0.064539    -0.065528     0.024730     0.040798
   41 O      0.467223     9.902887     4.973643    -0.527507     0.012711     0.003262     0.005485     0.014223    -0.008518    -0.000865    -0.030430     0.108568    -0.049740    -0.065545     0.002275     0.063270
   42 O     -2.425256     8.880568     5.627915    -0.600996    -0.047769     0.093228     0.037085     0.111124    -0.037531    -0.050323     0.038571    -0.080004    -0.097164    -0.078689    -0.016972     0.095661
   43 O     -0.192101     6.854654     5.013825    -0.594679    -0.004280    -0.019345     0.026723     0.033266     0.034073     0.000059    -0.005640    -0.079284     0.080660    -0.065761     0.024935     0.040826
   44 O     -1.865633     5.806205     6.089624    -0.526650     0.014009    -0.006761     0.000583     0.015566     0.004063    -0.007685     0.027898     0.112206    -0.039201    -0.065067     0.001643     0.063424
   45 O      2.240997     5.750899     4.877100    -0.601381    -0.047611    -0.078687     0.061581     0.110682     0.061546    -0.007696    -0.058027    -0.046692     0.002154    -0.078037    -0.017482     0.095519
   46 O      4.473952     7.295556     3.429482    -0.593888    -0.004176    -0.013871    -0.030034     0.033345    -0.016450     0.029429     0.003074    -0.074886     0.091806    -0.065246     0.025027     0.040218
   47 O      2.800534     6.888122     1.983560    -0.526255     0.013978     0.001956    -0.005740     0.015237     0.004676     0.007653     0.001659     0.060802    -0.195469    -0.065640     0.001837     0.063803
   48 O     -0.091980     7.965746     2.541811    -0.602391    -0.047253    -0.015146    -0.099413     0.111109    -0.024315     0.057231     0.018785     0.019627     0.201902    -0.077869    -0.017325     0.095194
   49 Zn    -1.389369     0.486697     7.744547     0.988708     0.008826     0.006139    -0.010563     0.015071    -0.007949    -0.055510    -0.006865     0.014440     0.183258    -0.056413    -0.032256     0.088669
   50 Zn     0.943537     0.582460     9.595426     0.987742     0.009189     0.005247     0.012169     0.016126     0.052118     0.021282     0.047287    -0.050894    -0.020763    -0.056352    -0.032710     0.089062
   51 Zn     3.276675    -1.068210     8.753026     0.987480     0.008132    -0.012529    -0.000767     0.014957    -0.044512     0.034794    -0.037571    -0.065654    -0.057004    -0.056893    -0.030919     0.087812
   52 Zn     3.721249     7.046124     5.302149     0.988805    -0.009151    -0.006857     0.010756     0.015699    -0.007995    -0.055468    -0.006864     0.014207     0.183033    -0.056445    -0.032113     0.088558
   53 Zn     1.388366     6.950210     3.451269     0.987905    -0.009642    -0.006264    -0.011841     0.016505     0.052201     0.021247     0.047223    -0.051135    -0.021272    -0.056377    -0.032754     0.089131
   54 Zn    -0.944818     8.600955     4.293539     0.987190    -0.008431     0.011655     0.001025     0.014421    -0.044499     0.034939    -0.037690    -0.065866    -0.057208    -0.057077    -0.030920     0.087997
 
The sperically averaged electron density of each atom fit to a function of the form exp(a - br) for r >=rmin_cloud_penetration
atom number,atomic symbol, x, y, z, a, b, Rsquared where a and b are in atomic units and Rsquared is the squared correlation coefficient
    1 C      0.646323    -2.012144     7.954853    -0.744292     1.914345     0.997198
    2 C     -0.317200    -2.880077     7.219173    -0.145318     1.963958     0.994391
    3 C      5.319234    -2.515377     7.000517    -0.059712     2.016199     0.995480
    4 C      4.512022    -3.420519     6.302931    -0.274560     1.895128     0.995134
    5 C      2.978991     1.649870     7.326152    -0.725109     1.917443     0.997425
    6 C      2.015509     2.721077     6.942069    -0.205371     1.950560     0.995066
    7 C      0.652868     2.727938     7.367509    -0.033139     2.021638     0.996101
    8 C     -0.154462     3.784682     6.932284    -0.397806     1.870672     0.993751
    9 C     -1.687102     0.363296    10.812125    -0.716273     1.920039     0.997226
   10 C     -2.650665     0.160324    11.931628    -0.172276     1.959200     0.993880
   11 C      2.985721    -0.211463    11.724974    -0.172155     1.995223     0.994145
   12 C      2.178442    -0.362915    12.857785    -0.361539     1.878015     0.994349
   13 C      1.685604     9.545115     5.091581    -0.745046     1.914248     0.997195
   14 C      2.649056    10.413049     5.827262    -0.143098     1.964533     0.994374
   15 C     -2.987377    10.048349     6.045918    -0.050631     2.017964     0.995505
   16 C     -2.180142    10.953340     6.743504    -0.274136     1.895435     0.995121
   17 C     -0.647135     5.883101     5.720544    -0.727271     1.917188     0.997428
   18 C      0.316371     4.811744     6.104627    -0.215085     1.948403     0.995034
   19 C      1.679034     4.804958     5.679317    -0.030896     2.021966     0.996109
   20 C      2.486295     3.748214     6.114542    -0.397168     1.870734     0.993737
   21 C      4.018982     7.169299     2.234701    -0.716225     1.919939     0.997220
   22 C      4.982499     7.372346     1.115067    -0.169873     1.960183     0.993861
   23 C     -0.653888     7.744133     1.321460    -0.173857     1.994710     0.994148
   24 C      0.153438     7.895510     0.188780    -0.364013     1.877656     0.994346
   25 H      3.470307    -3.157878     6.123283    -3.237432     1.740643     0.970824
   26 H     -1.196215     3.808865     7.249701    -3.565413     1.675851     0.965976
   27 H      1.136689    -0.649814    12.720147    -3.269348     1.731630     0.976385
   28 H     -1.138427    10.690699     6.923152    -3.227486     1.743344     0.970486
   29 H      3.528095     3.723955     5.796995    -3.562538     1.676269     0.966067
   30 H      1.195144     8.182484     0.326549    -3.266173     1.732584     0.976241
   31 O      0.191054    -0.914259     8.443046    -0.477755     1.888993     0.999831
   32 O      1.864633    -2.370142     8.072923    -1.269040     1.821841     0.994230
   33 O      4.757112    -1.347822     7.418650    -0.530950     1.907544     0.998731
   34 O      2.524004     0.678017     8.032870    -0.499303     1.884719     0.999793
   35 O      4.197490     1.726767     6.957072    -1.357375     1.805495     0.992838
   36 O      0.090859     1.782072     8.169596    -0.608963     1.892233     0.998497
   37 O     -2.142096     0.236963     9.616952    -0.527263     1.879756     0.999664
   38 O     -0.468701     0.644548    11.063136    -1.257478     1.825324     0.993647
   39 O      2.423837    -0.433227    10.504623    -0.598750     1.893858     0.998403
   40 O      2.140803     8.447005     4.603519    -0.480476     1.888374     0.999828
   41 O      0.467223     9.902887     4.973643    -1.266508     1.822347     0.994231
   42 O     -2.425256     8.880568     5.627915    -0.531876     1.907373     0.998739
   43 O     -0.192101     6.854654     5.013825    -0.485809     1.887370     0.999809
   44 O     -1.865633     5.806205     6.089624    -1.357553     1.805318     0.992827
   45 O      2.240997     5.750899     4.877100    -0.608353     1.892429     0.998506
   46 O      4.473952     7.295556     3.429482    -0.523087     1.880851     0.999664
   47 O      2.800534     6.888122     1.983560    -1.259494     1.824925     0.993649
   48 O     -0.091980     7.965746     2.541811    -0.599438     1.893731     0.998408
   49 Zn    -1.389369     0.486697     7.744547    -0.176572     1.854458     0.999642
   50 Zn     0.943537     0.582460     9.595426    -0.168637     1.855317     0.999704
   51 Zn     3.276675    -1.068210     8.753026    -0.206910     1.847886     0.999496
   52 Zn     3.721249     7.046124     5.302149    -0.178422     1.854216     0.999642
   53 Zn     1.388366     6.950210     3.451269    -0.167896     1.855477     0.999705
   54 Zn    -0.944818     8.600955     4.293539    -0.206121     1.847952     0.999496
 
 2024/04/02  17:19:22
