  102
jmolscript: load "" {1 1 1} spacegroup "x,y,z" unitcell [{      0.253561   -23.697721     0.139068 }, {     -0.226890    -0.011811   -22.498500 }, {     22.410106     0.031814    -1.969238 }]
C     10.763727    -8.679433   -13.336386     0.119356
C     10.105979    -8.518414   -14.585024    -0.121937
C      9.266020    -9.506340   -15.076460    -0.108252
C      9.031674   -10.661929   -14.299174     0.031523
C      9.659999   -10.845408   -13.040465    -0.097898
C     10.518118    -9.860854   -12.576060    -0.126423
H     10.307142    -7.603069   -15.184216     0.123500
H      8.779907    -9.432491   -16.051774     0.137856
H      9.459100   -11.752500   -12.473722     0.148869
H     11.000564    -9.962626   -11.591040     0.125321
C      8.171271   -11.654943   -14.795472     0.319160
N      7.492631   -12.498540   -15.188078    -0.332740
C      9.782305    -0.312786   -13.861313     0.101079
C     10.548653   -23.265144   -14.798705    -0.150039
C      9.870525   -22.117536   -15.176493    -0.107723
C      8.702693   -21.723414   -14.488518     0.013312
C      8.224141   -22.478743   -13.400981    -0.115357
C      8.874272   -23.627312   -13.010005    -0.135425
H     11.459135   -23.573663   -15.353788     0.132501
H     10.224256   -21.502146   -15.990058     0.133063
H      7.336439   -22.137085   -12.889032     0.135713
H      8.228339    -0.526908   -12.295742     0.132263
C      8.031525   -20.550050   -14.873352     0.309665
N      7.505424   -19.563661   -15.171028    -0.361225
C     11.106975    -2.519890   -13.098764    -0.085051
C     11.668871    -7.705535   -12.806097    -0.117231
C     10.407955    -1.402568   -13.493683    -0.005633
C     11.443082    -6.329404   -12.980788    -0.186308
S     12.472544    -5.084388   -12.327959     0.321878
C     11.681815    -3.748894   -12.765883    -0.149534
H     12.530121    -8.027190   -12.186944     0.133310
H     10.508698    -5.943414   -13.468101     0.145875
C      7.573433   -16.059799    -8.397426     0.085629
C      6.371859   -16.341275    -9.101779    -0.138739
C      6.359133   -16.342339   -10.489626    -0.124575
C      7.534720   -16.033623   -11.181156    -0.008212
C      8.726312   -15.735860   -10.520308    -0.122074
C      8.751518   -15.772370    -9.132154    -0.144200
H      5.477901   -16.592311    -8.551794     0.111741
H      5.484339   -16.569804   -11.070882     0.118667
H      9.599274   -15.494093   -11.124392     0.125044
H      9.677941   -15.539375    -8.618525     0.112123
C      7.106013   -15.924135   -22.026340     0.114672
C      7.516546   -14.774621   -21.291616    -0.137539
C      7.640711   -14.836529   -19.907373    -0.103795
C      7.342354   -16.017368   -19.234021    -0.042171
C      6.980394   -17.165915   -19.927063    -0.087999
C      6.838598   -17.128786   -21.311783    -0.111176
H      7.723197   -13.840812   -21.788269     0.115587
H      7.938262   -13.980554   -19.310307     0.123994
H      6.793499   -18.065287   -19.343663     0.122957
H      6.526718   -18.023860   -21.824189     0.115013
C      7.184697   -15.857402    -0.930320    -0.079475
C      7.644780   -16.086051    -6.951679    -0.147395
C      6.914557   -15.762645    -3.487743    -0.080216
C      6.673414   -15.700818    -6.090166    -0.062799
C      6.860724   -15.757349    -4.705110    -0.029509
C      7.061230   -15.814694    -2.162801    -0.042575
H      8.598784   -16.415900    -6.548285     0.114098
H      5.740825   -15.289432    -6.499956     0.189751
C      0.562631   -16.082628   -14.494305     0.093127
C      1.282074   -16.587950   -15.693203    -0.120678
C      2.640837   -16.605406   -15.812325    -0.122933
C      3.428977   -16.046108   -14.799671    -0.000287
C      2.832332   -15.489792   -13.692604    -0.098541
C      1.512581   -15.510435   -13.561688    -0.101621
H      0.702519   -17.061936   -16.442553     0.101596
H      3.176896   -17.044557   -16.664167     0.125916
H      3.530022   -15.033360   -12.971710     0.111031
H      1.064015   -15.078139   -12.684944     0.094573
C     14.362184   -15.967365   -16.124828     0.101242
C     13.488326   -14.818266   -15.920106    -0.105907
C     12.153020   -14.833689   -15.671087    -0.095359
C     11.417825   -16.092148   -15.571886    -0.038144
C     12.152761   -17.146227   -15.786626    -0.093153
C     13.537217   -17.141956   -16.021136    -0.079706
H     13.983859   -13.822608   -15.969340     0.084808
H     11.559071   -13.915888   -15.528856     0.074904
H     11.586244   -18.136511   -15.691582     0.105394
H     14.029834   -18.143861   -16.152922     0.093538
C     15.511005   -15.983568   -16.315507    -0.053672
C     21.807943   -16.028376   -16.350818    -0.114547
C     18.110802   -15.919153   -16.844587    -0.044209
C     20.696141   -15.902165   -17.299977    -0.150879
C     19.392986   -15.917423   -17.011121    -0.014889
C     16.796055   -15.929265   -16.601451    -0.060461
H     21.367550   -16.127228   -15.319951     0.108588
H     21.049963   -15.715590   -18.322477     0.150893
Zn     7.402870   -14.507409   -15.247018     0.960399
Zn     7.425316   -17.577788   -15.230995     0.937647
C     10.058767   -16.019948   -15.387858     0.617454
C      4.894648   -16.029268   -15.008437     0.603979
C      7.355946   -16.033007   -17.755760     0.591460
C      7.549336   -16.034583   -12.660303     0.605816
O      5.429679   -17.152752   -15.119852    -0.560088
O      9.409398   -17.151664   -15.301245    -0.593154
O      7.322817   -17.175818   -17.208772    -0.559371
O      7.523457   -17.162982   -13.209452    -0.555316
O      7.370920   -14.892827   -17.199604    -0.569072
O      9.406987   -14.913815   -15.298233    -0.630943
O      5.432604   -14.893315   -15.035649    -0.573865
O      7.581786   -14.878097   -13.204261    -0.575865
 
 Chargemol version 3.5 September 26, 2017.
See ddec.sourceforge.net for latest version.
 
Computational parameters:
Number of radial integration shells =    100
Cutoff radius (pm) =    500
Error in the integrated total number of electrons before renormalization (e) =    2.2366E-01
Charge convergence tolerance =    1.0000E-05
Minimum radius for electron cloud penetration fitting (pm) =    200
Minimum decay exponent for electron density of buried atom tails =   1.7500
Maximum decay exponent for electron density of buried atom tails =  2.5000
Number of iterations to convergence =      7
 
The following XYZ coordinates are in angstroms. The atomic dipoles and quadrupoles are in atomic units.
atom number, atomic symbol, x, y, z, net_charge, dipole_x, dipole_y, dipole_z, dipole_mag, Qxy, Qxz, Qyz,Q(x^2-y^2), Q(3z^2 - R^2), three eigenvalues of traceless quadrupole moment tensor
    1 C     10.763727    -8.679433   -13.336386     0.119356     0.006954     0.011507     0.002746     0.013723     0.017922     0.017158     0.008874    -0.011149    -0.062677    -0.029466    -0.005307     0.034773
    2 C     10.105979    -8.518414   -14.585024    -0.121937    -0.014329    -0.021602     0.003843     0.026206     0.004217     0.001984    -0.019526    -0.038773     0.001353    -0.021352    -0.010229     0.031581
    3 C      9.266020    -9.506340   -15.076460    -0.108252     0.021689     0.006293     0.021445     0.031144    -0.003653     0.022784    -0.012236    -0.001527     0.082159    -0.024737    -0.015672     0.040410
    4 C      9.031674   -10.661929   -14.299174     0.031523     0.014117     0.004452     0.005575     0.015817     0.054642     0.035232     0.005251    -0.037347    -0.029516    -0.065668    -0.005136     0.070804
    5 C      9.659999   -10.845408   -13.040465    -0.097898     0.012789     0.024723    -0.011622     0.030164     0.005351    -0.000146    -0.020005    -0.035127     0.022712    -0.022548    -0.008702     0.031249
    6 C     10.518118    -9.860854   -12.576060    -0.126423    -0.017658    -0.008874    -0.013582     0.023980     0.002898     0.023919    -0.009646     0.002301     0.068803    -0.026590    -0.009923     0.036513
    7 H     10.307142    -7.603069   -15.184216     0.123500     0.009060     0.044579    -0.033657     0.056588     0.010106     0.006334    -0.019450    -0.021048     0.023171    -0.025100    -0.001717     0.026817
    8 H      8.779907    -9.432491   -16.051774     0.137856    -0.024428     0.004277    -0.052807     0.058340     0.008169     0.017665    -0.007862    -0.007687     0.047144    -0.025769     0.000944     0.024825
    9 H      9.459100   -11.752500   -12.473722     0.148869    -0.009561    -0.048127     0.030096     0.057562     0.010090     0.007269    -0.014152    -0.019126     0.014933    -0.022536     0.002100     0.020436
   10 H     11.000564    -9.962626   -11.591040     0.125321     0.021894    -0.007268     0.051954     0.056846     0.008356     0.016802    -0.010326    -0.007765     0.048312    -0.026412     0.001158     0.025253
   11 C      8.171271   -11.654943   -14.795472     0.319160     0.025661     0.029735     0.015698     0.042297    -0.067859    -0.014832    -0.071874    -0.008954     0.151197    -0.116324     0.016121     0.100203
   12 N      7.492631   -12.498540   -15.188078    -0.332740    -0.025353    -0.022452    -0.016683     0.037751    -0.067698    -0.033714    -0.043237     0.051659     0.177485    -0.118871     0.042596     0.076276
   13 C      9.782305    -0.312786   -13.861313     0.101079    -0.027197     0.035902    -0.001698     0.045073    -0.016515    -0.004013    -0.019276    -0.030495     0.004635    -0.028477    -0.002687     0.031164
   14 C     10.548653   -23.265144   -14.798705    -0.150039    -0.022116     0.005134     0.018158     0.029072    -0.016307    -0.052888    -0.014380     0.014109     0.000717    -0.058535     0.001883     0.056652
   15 C      9.870525   -22.117536   -15.176493    -0.107723    -0.004893    -0.014962     0.028442     0.032508     0.011953    -0.022657    -0.026222     0.000117     0.068793    -0.025686    -0.022418     0.048104
   16 C      8.702693   -21.723414   -14.488518     0.013312     0.009467    -0.012131     0.011151     0.019004    -0.051256    -0.021458    -0.038869    -0.039491    -0.082798    -0.075787     0.002512     0.073275
   17 C      8.224141   -22.478743   -13.400981    -0.115357     0.023627    -0.001337    -0.014975     0.028005    -0.014133    -0.036603     0.008830     0.032959    -0.008073    -0.030636    -0.019186     0.049822
   18 C      8.874272   -23.627312   -13.010005    -0.135425     0.029435    -0.000610    -0.015998     0.033508    -0.016237    -0.034929    -0.035538     0.011063    -0.002938    -0.058999     0.016567     0.042432
   19 H     11.459135   -23.573663   -15.353788     0.132501     0.048349    -0.012214    -0.035188     0.061033    -0.013608    -0.024493    -0.007804     0.012489    -0.010128    -0.031057     0.002485     0.028572
   20 H     10.224256   -21.502146   -15.990058     0.133063     0.019338     0.030999    -0.041555     0.055333    -0.004289    -0.016090    -0.017060    -0.002349     0.011772    -0.025159     0.002257     0.022902
   21 H      7.336439   -22.137085   -12.889032     0.135713    -0.043879     0.017449     0.027805     0.054799    -0.011892    -0.019319    -0.005918     0.010992    -0.006970    -0.024932     0.001615     0.023317
   22 H      8.228339    -0.526908   -12.295742     0.132263    -0.024392    -0.027940     0.044801     0.058161    -0.004873    -0.020812    -0.018314     0.002156     0.011278    -0.029660     0.002820     0.026841
   23 C      8.031525   -20.550050   -14.873352     0.309665     0.017792    -0.028911     0.017596     0.038236     0.059250    -0.058970     0.017895     0.099396     0.148594    -0.113368     0.012200     0.101168
   24 N      7.505424   -19.563661   -15.171028    -0.361225    -0.022878     0.035562    -0.004322     0.042506     0.048669    -0.045092     0.019433     0.109605     0.158264    -0.107355     0.018657     0.088698
   25 C     11.106975    -2.519890   -13.098764    -0.085051     0.033404    -0.029370     0.021684     0.049483     0.044735    -0.053315     0.031047     0.063715     0.175673    -0.102011     0.011135     0.090876
   26 C     11.668871    -7.705535   -12.806097    -0.117231    -0.011117    -0.017703    -0.017384     0.027188     0.009227     0.004938    -0.012039     0.011143     0.016848    -0.020094     0.007533     0.012561
   27 C     10.407955    -1.402568   -13.493683    -0.005633    -0.010202     0.017176     0.018318     0.027104     0.009021    -0.150022    -0.003566     0.124293     0.358587    -0.123369    -0.098826     0.222194
   28 C     11.443082    -6.329404   -12.980788    -0.186308     0.021391     0.012024     0.003583     0.024799     0.015539     0.026408     0.011427     0.044667    -0.017997    -0.025903    -0.020093     0.045996
   29 S     12.472544    -5.084388   -12.327959     0.321878    -0.088725    -0.052870    -0.056209     0.117587     0.029440     0.029251     0.038458    -0.393929    -0.473458    -0.174271    -0.107541     0.281811
   30 C     11.681815    -3.748894   -12.765883    -0.149534    -0.007358     0.026307     0.001073     0.027338    -0.018604    -0.182140    -0.025410     0.058448     0.401394    -0.165668    -0.084087     0.249756
   31 H     12.530121    -8.027190   -12.186944     0.133310     0.044891    -0.015958     0.029924     0.056261    -0.003482     0.021474    -0.005699     0.006630    -0.034894    -0.025428     0.001171     0.024258
   32 H     10.508698    -5.943414   -13.468101     0.145875    -0.052074     0.020596    -0.019930     0.059440    -0.010150     0.011160    -0.004453     0.025080    -0.030285    -0.014236    -0.011022     0.025259
   33 C      7.573433   -16.059799    -8.397426     0.085629    -0.001699     0.002983     0.008481     0.009150    -0.000411     0.000866    -0.001830     0.033645     0.153932    -0.042518    -0.008841     0.051359
   34 C      6.371859   -16.341275    -9.101779    -0.138739     0.017323    -0.001380    -0.020652     0.026990     0.013154    -0.025218    -0.002284     0.048336    -0.001067    -0.028295    -0.014100     0.042395
   35 C      6.359133   -16.342339   -10.489626    -0.124575     0.026852    -0.001556     0.015990     0.031291     0.016352     0.016722     0.002997     0.047509     0.000568    -0.029114    -0.007456     0.036570
   36 C      7.534720   -16.033623   -11.181156    -0.008212    -0.000871    -0.004670     0.044537     0.044790    -0.006482     0.000498    -0.001054    -0.043795     0.008643    -0.024282     0.002818     0.021463
   37 C      8.726312   -15.735860   -10.520308    -0.122074    -0.019974    -0.013960     0.012705     0.027482     0.005491    -0.022003     0.000209     0.057822     0.016859    -0.032410    -0.008004     0.040414
   38 C      8.751518   -15.772370    -9.132154    -0.144200    -0.014342    -0.005852    -0.018304     0.023978     0.007119     0.028540     0.008968     0.064621     0.009176    -0.035910    -0.014130     0.050040
   39 H      5.477901   -16.592311    -8.551794     0.111741    -0.041924    -0.014332     0.022240     0.049575     0.012144    -0.005306    -0.003003     0.038888     0.001555    -0.023272    -0.000883     0.024155
   40 H      5.484339   -16.569804   -11.070882     0.118667    -0.037558    -0.012252    -0.030782     0.050083     0.012205     0.004757     0.001342     0.031212     0.025612    -0.024083     0.005991     0.018092
   41 H      9.599274   -15.494093   -11.124392     0.125044     0.039233     0.006052    -0.033835     0.052160     0.009526    -0.008930    -0.000658     0.038021     0.025807    -0.025627     0.003053     0.022574
   42 H      9.677941   -15.539375    -8.618525     0.112123     0.045339     0.010300     0.020657     0.050877     0.010941     0.005970     0.001129     0.042820     0.013824    -0.026351     0.002679     0.023672
   43 C      7.106013   -15.924135   -22.026340     0.114672     0.000661     0.000645    -0.016085     0.016111     0.006013     0.006791    -0.000494    -0.026293     0.143032    -0.038820    -0.009398     0.048218
   44 C      7.516546   -14.774621   -21.291616    -0.137539    -0.003328    -0.015845     0.011999     0.020153     0.006582    -0.002439    -0.020297    -0.053538    -0.000907    -0.027415    -0.011075     0.038491
   45 C      7.640711   -14.836529   -19.907373    -0.103795    -0.006169    -0.022487    -0.011959     0.026205     0.001787     0.000963     0.014753    -0.020246    -0.028546    -0.016461    -0.005515     0.021976
   46 C      7.342354   -16.017368   -19.234021    -0.042171    -0.011571     0.005192    -0.042097     0.043966     0.006196     0.007150    -0.000856     0.016717    -0.005466    -0.010813    -0.003248     0.014061
   47 C      6.980394   -17.165915   -19.927063    -0.087999    -0.059750     0.043194    -0.017253     0.075720    -0.013546    -0.025651    -0.015502    -0.000381    -0.024218    -0.038377     0.014079     0.024298
   48 C      6.838598   -17.128786   -21.311783    -0.111176     0.021514     0.015156     0.017994     0.031880    -0.029520    -0.005049     0.026891    -0.037638     0.006075    -0.038351    -0.010391     0.048742
   49 H      7.723197   -13.840812   -21.788269     0.115587     0.008827     0.048647    -0.019882     0.053289     0.011130     0.001319    -0.006734    -0.042231     0.008858    -0.025647     0.001422     0.024226
   50 H      7.938262   -13.980554   -19.310307     0.123994     0.014311     0.042106     0.031946     0.054756     0.011984     0.007054     0.007871    -0.035728    -0.015116    -0.020477    -0.006465     0.026942
   51 H      6.793499   -18.065287   -19.343663     0.122957    -0.011948    -0.044857     0.035604     0.058502     0.005976    -0.001744    -0.010226    -0.042409    -0.014858    -0.019563    -0.008227     0.027790
   52 H      6.526718   -18.023860   -21.824189     0.115013    -0.010671    -0.047538    -0.023128     0.053931     0.013072     0.008366     0.005458    -0.039370     0.006905    -0.026291     0.001158     0.025133
   53 C      7.184697   -15.857402    -0.930320    -0.079475     0.011509    -0.006105     0.097400     0.098268     0.029594    -0.010741    -0.002256    -0.064533    -0.294475    -0.099154     0.006103     0.093051
   54 C      7.644780   -16.086051    -6.951679    -0.147395     0.006444    -0.007192    -0.026610     0.028308     0.019207     0.021556    -0.018292     0.008501     0.003552    -0.039456     0.015288     0.024167
   55 C      6.914557   -15.762645    -3.487743    -0.080216     0.011120    -0.003760     0.131271     0.131794     0.003418    -0.012930     0.003371    -0.005061    -0.227625    -0.077476     0.035206     0.042270
   56 C      6.673414   -15.700818    -6.090166    -0.062799    -0.018729     0.003350     0.062941     0.065754    -0.024139     0.005259     0.002111     0.045616     0.067098    -0.044635     0.018320     0.026315
   57 C      6.860724   -15.757349    -4.705110    -0.029509    -0.000823    -0.001210    -0.127708     0.127716    -0.026891    -0.014538     0.004853     0.051591    -0.237270    -0.080591     0.002300     0.078291
   58 C      7.061230   -15.814694    -2.162801    -0.042575    -0.009285     0.003486    -0.115663     0.116087     0.004802    -0.010197     0.008152     0.000806    -0.204229    -0.069794     0.030893     0.038901
   59 H      8.598784   -16.415900    -6.548285     0.114098     0.045071    -0.017618     0.020428     0.052527    -0.013910     0.007182    -0.005772     0.030036     0.002465    -0.021256    -0.002239     0.023495
   60 H      5.740825   -15.289432    -6.499956     0.189751    -0.037035     0.018935    -0.012717     0.043495    -0.018191     0.004419    -0.003568     0.026964     0.006441    -0.023773     0.000727     0.023046
   61 C      0.562631   -16.082628   -14.494305     0.093127     0.027422    -0.014700    -0.001290     0.031140     0.008107     0.000151     0.005187    -0.003702     0.036510    -0.014775     0.000797     0.013978
   62 C      1.282074   -16.587950   -15.693203    -0.120678     0.010572     0.017288     0.030695     0.036781     0.013806     0.017349     0.016268     0.025290     0.078319    -0.033124    -0.008023     0.041147
   63 C      2.640837   -16.605406   -15.812325    -0.122933    -0.000685     0.012631     0.021698     0.025116    -0.005245    -0.012775     0.018070    -0.002366     0.039816    -0.017359    -0.011930     0.029289
   64 C      3.428977   -16.046108   -14.799671    -0.000287    -0.038751     0.002719    -0.000603     0.038851    -0.008050     0.007376    -0.016479    -0.067134    -0.081939    -0.033294    -0.018646     0.051940
   65 C      2.832332   -15.489792   -13.692604    -0.098541    -0.008680    -0.002284    -0.028205     0.029598     0.005275     0.018724    -0.035470    -0.010547     0.042795    -0.039829    -0.005130     0.044959
   66 C      1.512581   -15.510435   -13.561688    -0.101621     0.008019    -0.006819    -0.035511     0.037038    -0.009633    -0.018109     0.006354     0.007945     0.110517    -0.029300    -0.014520     0.043820
   67 H      0.702519   -17.061936   -16.442553     0.101596    -0.022827    -0.024164    -0.034895     0.048194     0.006326     0.003052     0.019880     0.013803     0.030073    -0.024247     0.000873     0.023374
   68 H      3.176896   -17.044557   -16.664167     0.125916     0.032312    -0.021036    -0.039495     0.055194    -0.000167    -0.010121     0.018790     0.016596     0.031023    -0.024669     0.000160     0.024508
   69 H      3.530022   -15.033360   -12.971710     0.111031     0.042794     0.020720     0.028988     0.055686     0.007162     0.007660     0.019249     0.017963     0.010956    -0.024221     0.000657     0.023564
   70 H      1.064015   -15.078139   -12.684944     0.094573    -0.019615     0.017584     0.041103     0.048820     0.000055    -0.005686     0.017906     0.018174     0.036128    -0.024252     0.001968     0.022284
   71 C     14.362184   -15.967365   -16.124828     0.101242    -0.027432     0.012000     0.008273     0.031064    -0.002270     0.004404    -0.000082    -0.015166     0.024506    -0.012897     0.003739     0.009158
   72 C     13.488326   -14.818266   -15.920106    -0.105907     0.011143    -0.054702    -0.005463     0.056092     0.030376     0.000213    -0.004837    -0.051720    -0.097342    -0.033174    -0.023152     0.056326
   73 C     12.153020   -14.833689   -15.671087    -0.095359    -0.020556    -0.043744    -0.006481     0.048766    -0.032739     0.008445     0.003305    -0.015400    -0.010364    -0.034348    -0.001198     0.035546
   74 C     11.417825   -16.092148   -15.571886    -0.038144     0.040009     0.008612    -0.001280     0.040945     0.018400     0.005622    -0.007158    -0.018980     0.071412    -0.033870     0.008216     0.025654
   75 C     12.152761   -17.146227   -15.786626    -0.093153     0.016865     0.020774    -0.001335     0.026791     0.021665     0.011255    -0.009070    -0.028136    -0.014195    -0.031152     0.002723     0.028429
   76 C     13.537217   -17.141956   -16.021136    -0.079706    -0.026575     0.031271     0.005857     0.041453    -0.013830    -0.010671     0.000781    -0.038079    -0.131431    -0.046191     0.000567     0.045624
   77 H     13.983859   -13.822608   -15.969340     0.084808     0.022949     0.050336    -0.003319     0.055420     0.007612    -0.004534     0.000210    -0.022530    -0.080438    -0.027543     0.000516     0.027026
   78 H     11.559071   -13.915888   -15.528856     0.074904    -0.037748     0.041051     0.002822     0.055840    -0.013223     0.007641     0.002964    -0.044703    -0.048618    -0.025237    -0.008851     0.034088
   79 H     11.586244   -18.136511   -15.691582     0.105394    -0.035458    -0.044728     0.006552     0.057453     0.009501    -0.000804    -0.000829    -0.027111    -0.049172    -0.016450    -0.008325     0.024775
   80 H     14.029834   -18.143861   -16.152922     0.093538     0.022974    -0.054596    -0.005815     0.059518    -0.007016    -0.006994     0.003605    -0.018143    -0.087271    -0.030544     0.003940     0.026604
   81 C     15.511005   -15.983568   -16.315507    -0.053672    -0.033720    -0.004671     0.013671     0.036685    -0.000325     0.028246     0.004140    -0.187845     0.101624    -0.116183     0.038771     0.077412
   82 C     21.807943   -16.028376   -16.350818    -0.114547    -0.022900    -0.013210    -0.032482     0.041881     0.017224     0.000015     0.004970    -0.056219     0.072535    -0.045082     0.017474     0.027609
   83 C     18.110802   -15.919153   -16.844587    -0.044209    -0.090533    -0.010739     0.009228     0.091634    -0.001760     0.034338     0.021215    -0.160295     0.086308    -0.103747     0.027295     0.076452
   84 C     20.696141   -15.902165   -17.299977    -0.150879    -0.012630    -0.016162     0.030557     0.036803     0.005071    -0.012803    -0.008875     0.082296     0.094865    -0.058015     0.015325     0.042690
   85 C     19.392986   -15.917423   -17.011121    -0.014889     0.077495    -0.010825     0.006330     0.078503    -0.003075     0.038260    -0.010643    -0.087700     0.241536    -0.092569     0.002191     0.090378
   86 C     16.796055   -15.929265   -16.601451    -0.060461     0.081015    -0.005212    -0.018754     0.083320    -0.001565     0.015767     0.009403    -0.050490     0.157266    -0.053961    -0.002243     0.056204
   87 H     21.367550   -16.127228   -15.319951     0.108588    -0.020545    -0.019387     0.047951     0.055653     0.007371    -0.005727    -0.010492     0.025651     0.064455    -0.027150     0.001122     0.026028
   88 H     21.049963   -15.715590   -18.322477     0.150893     0.027045     0.006563    -0.046547     0.054232     0.005603    -0.006182    -0.008788     0.025914     0.067377    -0.026499     0.000352     0.026148
   89 Zn     7.402870   -14.507409   -15.247018     0.960399     0.021642     0.085847     0.013169     0.089507     0.003335     0.008262    -0.003743     0.105141     0.093494    -0.068421     0.025581     0.042840
   90 Zn     7.425316   -17.577788   -15.230995     0.937647     0.004410    -0.079639     0.001984     0.079785     0.001102    -0.002291    -0.002155     0.099633     0.092309    -0.065261     0.029690     0.035570
   91 C     10.058767   -16.019948   -15.387858     0.617454    -0.059601     0.016975     0.009925     0.062761     0.008747     0.013770     0.001431    -0.037973     0.255232    -0.064601    -0.021804     0.086405
   92 C      4.894648   -16.029268   -15.008437     0.603979     0.051051     0.003341    -0.014586     0.053199    -0.001388     0.027705     0.005950    -0.018420     0.359602    -0.073341    -0.050690     0.124030
   93 C      7.355946   -16.033007   -17.755760     0.591460    -0.001019     0.003310     0.058311     0.058414     0.005284     0.004041    -0.000348     0.131982    -0.222420    -0.074237    -0.029126     0.103363
   94 C      7.549336   -16.034583   -12.660303     0.605816     0.009117    -0.000360    -0.055491     0.056236     0.004180    -0.002018    -0.003035     0.183784    -0.207225    -0.069819    -0.056728     0.126547
   95 O      5.429679   -17.152752   -15.119852    -0.560088     0.009630     0.011574    -0.004201     0.015631    -0.075008     0.014661     0.002386    -0.070665     0.098420    -0.100716     0.033191     0.067524
   96 O      9.409398   -17.151664   -15.301245    -0.593154    -0.005430     0.019651     0.006733     0.021470     0.078221     0.004337    -0.011502    -0.061958     0.076862    -0.097764     0.025358     0.072406
   97 O      7.322817   -17.175818   -17.208772    -0.559371    -0.000088     0.009730    -0.004315     0.010644     0.001678     0.004260    -0.063397     0.001393    -0.114802    -0.079565     0.020012     0.059554
   98 O      7.523457   -17.162982   -13.209452    -0.555316     0.006683     0.008055    -0.006964     0.012571     0.001375    -0.001603     0.073845     0.021184    -0.169661    -0.102115     0.038895     0.063220
   99 O      7.370920   -14.892827   -17.199604    -0.569072     0.001123    -0.010705    -0.011791     0.015965    -0.002046    -0.000407     0.071005     0.008443    -0.150041    -0.093959     0.029126     0.064833
  100 O      9.406987   -14.913815   -15.298233    -0.630943     0.008875    -0.023251    -0.004152     0.025231    -0.110532    -0.010586    -0.011716    -0.014680     0.085943    -0.126693     0.030215     0.096478
  101 O      5.432604   -14.893315   -15.035649    -0.573865    -0.006611    -0.008965    -0.001530     0.011244     0.070359     0.010986    -0.013709    -0.071270     0.096270    -0.097035     0.033047     0.063988
  102 O      7.581786   -14.878097   -13.204261    -0.575865     0.013823    -0.022525    -0.024968     0.036357    -0.005383    -0.005069    -0.082219    -0.008774    -0.113093    -0.095390     0.014903     0.080487
 
The sperically averaged electron density of each atom fit to a function of the form exp(a - br) for r >=rmin_cloud_penetration
atom number,atomic symbol, x, y, z, a, b, Rsquared where a and b are in atomic units and Rsquared is the squared correlation coefficient
    1 C     10.763727    -8.679433   -13.336386     1.766844     2.345530     0.998138
    2 C     10.105979    -8.518414   -14.585024     1.707318     2.321951     0.999013
    3 C      9.266020    -9.506340   -15.076460     1.426090     2.288552     0.999709
    4 C      9.031674   -10.661929   -14.299174     1.819860     2.363471     0.998538
    5 C      9.659999   -10.845408   -13.040465     0.500744     2.090054     0.999910
    6 C     10.518118    -9.860854   -12.576060     1.196563     2.236320     0.999021
    7 H     10.307142    -7.603069   -15.184216    -0.822577     2.311012     0.999657
    8 H      8.779907    -9.432491   -16.051774    -0.948856     2.325950     0.997737
    9 H      9.459100   -11.752500   -12.473722    -1.585996     2.112022     0.999190
   10 H     11.000564    -9.962626   -11.591040    -1.255339     2.265911     0.997231
   11 C      8.171271   -11.654943   -14.795472     0.752439     2.201135     0.999939
   12 N      7.492631   -12.498540   -15.188078    -0.375584     1.973013     0.999189
   13 C      9.782305    -0.312786   -13.861313     1.481186     2.264940     0.998610
   14 C     10.548653   -23.265144   -14.798705     1.824711     2.333239     0.998743
   15 C      9.870525   -22.117536   -15.176493     1.149994     2.222719     0.999897
   16 C      8.702693   -21.723414   -14.488518     2.182041     2.436316     0.998066
   17 C      8.224141   -22.478743   -13.400981     1.623987     2.323038     0.999575
   18 C      8.874272   -23.627312   -13.010005     2.136581     2.395767     0.997157
   19 H     11.459135   -23.573663   -15.353788    -0.640292     2.355968     0.998752
   20 H     10.224256   -21.502146   -15.990058    -1.499832     2.181527     0.999646
   21 H      7.336439   -22.137085   -12.889032    -1.006609     2.308575     0.998511
   22 H      8.228339    -0.526908   -12.295742    -0.435975     2.395862     0.998981
   23 C      8.031525   -20.550050   -14.873352     0.820609     2.224722     0.999980
   24 N      7.505424   -19.563661   -15.171028    -0.369162     1.965874     0.999381
   25 C     11.106975    -2.519890   -13.098764     2.515770     2.510965     0.999309
   26 C     11.668871    -7.705535   -12.806097     1.851005     2.349294     0.998426
   27 C     10.407955    -1.402568   -13.493683     2.936378     2.578197     0.997215
   28 C     11.443082    -6.329404   -12.980788     2.036247     2.354306     0.997484
   29 S     12.472544    -5.084388   -12.327959     4.035673     2.705638     0.998606
   30 C     11.681815    -3.748894   -12.765883     2.920178     2.540431     0.997143
   31 H     12.530121    -8.027190   -12.186944    -0.091767     2.428150     0.997627
   32 H     10.508698    -5.943414   -13.468101    -0.286691     2.334723     0.997803
   33 C      7.573433   -16.059799    -8.397426     2.140535     2.414641     0.998031
   34 C      6.371859   -16.341275    -9.101779     1.314114     2.239059     0.999512
   35 C      6.359133   -16.342339   -10.489626     0.473664     2.071269     0.999721
   36 C      7.534720   -16.033623   -11.181156     0.801970     2.149255     0.998125
   37 C      8.726312   -15.735860   -10.520308     0.589737     2.102104     0.999377
   38 C      8.751518   -15.772370    -9.132154     1.524054     2.289165     0.999261
   39 H      5.477901   -16.592311    -8.551794    -0.795618     2.311757     0.998889
   40 H      5.484339   -16.569804   -11.070882    -1.447380     2.134082     0.999518
   41 H      9.599274   -15.494093   -11.124392    -2.009694     2.054432     0.999827
   42 H      9.677941   -15.539375    -8.618525    -0.678874     2.360634     0.997916
   43 C      7.106013   -15.924135   -22.026340     2.461929     2.474166     0.997046
   44 C      7.516546   -14.774621   -21.291616     1.901438     2.360052     0.998335
   45 C      7.640711   -14.836529   -19.907373     0.789176     2.152979     0.998699
   46 C      7.342354   -16.017368   -19.234021     1.099722     2.215493     0.999390
   47 C      6.980394   -17.165915   -19.927063     0.788771     2.157378     0.998995
   48 C      6.838598   -17.128786   -21.311783     1.873177     2.360576     0.998565
   49 H      7.723197   -13.840812   -21.788269    -0.509406     2.384579     0.998657
   50 H      7.938262   -13.980554   -19.310307    -1.732710     2.126516     0.999139
   51 H      6.793499   -18.065287   -19.343663    -1.741975     2.137611     0.999206
   52 H      6.526718   -18.023860   -21.824189    -0.508706     2.386603     0.998812
   53 C      7.184697   -15.857402    -0.930320     2.808700     2.545696     0.995819
   54 C      7.644780   -16.086051    -6.951679     2.010369     2.362038     0.997464
   55 C      6.914557   -15.762645    -3.487743     2.831925     2.559830     0.997863
   56 C      6.673414   -15.700818    -6.090166     2.239005     2.445225     0.998505
   57 C      6.860724   -15.757349    -4.705110     2.778668     2.564328     0.998478
   58 C      7.061230   -15.814694    -2.162801     2.730674     2.545407     0.998262
   59 H      8.598784   -16.415900    -6.548285    -0.216266     2.378108     0.998495
   60 H      5.740825   -15.289432    -6.499956    -0.110261     2.423180     0.997907
   61 C      0.562631   -16.082628   -14.494305     2.384673     2.478260     0.997578
   62 C      1.282074   -16.587950   -15.693203     1.685557     2.315980     0.998911
   63 C      2.640837   -16.605406   -15.812325     0.789350     2.154726     0.999225
   64 C      3.428977   -16.046108   -14.799671     1.330583     2.260169     0.999040
   65 C      2.832332   -15.489792   -13.692604     0.863329     2.159933     0.999867
   66 C      1.512581   -15.510435   -13.561688     1.409635     2.278483     0.999584
   67 H      0.702519   -17.061936   -16.442553    -0.474461     2.376953     0.998470
   68 H      3.176896   -17.044557   -16.664167    -1.601533     2.148111     0.999621
   69 H      3.530022   -15.033360   -12.971710    -1.315869     2.161458     0.999643
   70 H      1.064015   -15.078139   -12.684944    -0.798815     2.333620     0.998267
   71 C     14.362184   -15.967365   -16.124828     1.699478     2.326390     0.998011
   72 C     13.488326   -14.818266   -15.920106     1.204639     2.218758     0.999636
   73 C     12.153020   -14.833689   -15.671087     0.381328     2.049214     0.999361
   74 C     11.417825   -16.092148   -15.571886     0.605932     2.118464     0.999088
   75 C     12.152761   -17.146227   -15.786626     0.583721     2.097980     0.999148
   76 C     13.537217   -17.141956   -16.021136     1.590824     2.306335     0.999172
   77 H     13.983859   -13.822608   -15.969340    -0.870829     2.266200     0.999552
   78 H     11.559071   -13.915888   -15.528856    -1.529356     2.065543     0.999851
   79 H     11.586244   -18.136511   -15.691582    -1.493774     2.113119     0.999527
   80 H     14.029834   -18.143861   -16.152922    -0.562254     2.343408     0.999386
   81 C     15.511005   -15.983568   -16.315507     2.735061     2.533470     0.996059
   82 C     21.807943   -16.028376   -16.350818     1.939011     2.362488     0.997344
   83 C     18.110802   -15.919153   -16.844587     2.850948     2.563176     0.997822
   84 C     20.696141   -15.902165   -17.299977     1.982032     2.371842     0.998907
   85 C     19.392986   -15.917423   -17.011121     2.775925     2.566208     0.998666
   86 C     16.796055   -15.929265   -16.601451     2.646538     2.536895     0.998461
   87 H     21.367550   -16.127228   -15.319951    -0.275250     2.367292     0.998760
   88 H     21.049963   -15.715590   -18.322477    -0.122751     2.408440     0.998427
   89 Zn     7.402870   -14.507409   -15.247018    -0.088897     1.852446     0.999615
   90 Zn     7.425316   -17.577788   -15.230995    -0.102116     1.850352     0.999560
   91 C     10.058767   -16.019948   -15.387858    -0.605206     1.914383     0.999110
   92 C      4.894648   -16.029268   -15.008437    -0.054840     2.015116     0.999785
   93 C      7.355946   -16.033007   -17.755760    -0.249130     1.984896     0.999551
   94 C      7.549336   -16.034583   -12.660303    -0.296629     1.961271     0.999694
   95 O      5.429679   -17.152752   -15.119852    -0.641779     1.893683     0.999861
   96 O      9.409398   -17.151664   -15.301245    -0.786858     1.851986     0.999937
   97 O      7.322817   -17.175818   -17.208772    -0.618841     1.900858     0.999976
   98 O      7.523457   -17.162982   -13.209452    -0.823007     1.854324     0.999951
   99 O      7.370920   -14.892827   -17.199604    -0.649091     1.895890     0.999974
  100 O      9.406987   -14.913815   -15.298233    -0.875337     1.819541     0.999865
  101 O      5.432604   -14.893315   -15.035649    -0.582433     1.905546     0.999902
  102 O      7.581786   -14.878097   -13.204261    -0.783442     1.851987     0.999769
 
 2025/04/09  10:23:13
